/*---------------------------------------------------------------------------*\
| =========                 |                                                 |
| \\      /  F ield         | OpenFOAM: The Open Source CFD Toolbox           |
|  \\    /   O peration     | Version:  2212                                  |
|   \\  /    A nd           | Website:  www.openfoam.com                      |
|    \\/     M anipulation  |                                                 |
\*---------------------------------------------------------------------------*/
Build  : _70874860-20230612 OPENFOAM=2212 patch=230612 version=2212
Arch   : "LSB;label=32;scalar=64"
Exec   : simpleFoam
Date   : Nov 27 2023
Time   : 18:46:31
Host   : maciek-gv62-7rc
PID    : 106417
I/O    : uncollated
Case   : /home/maciek/repository/airSupport/run/NACA4412__AoA0_kOmegaSST
nProcs : 1
trapFpe: Floating point exception trapping enabled (FOAM_SIGFPE).
fileModificationChecking : Monitoring run-time modified files using timeStampMaster (fileModificationSkew 5, maxFileModificationPolls 20)
allowSystemOperations : Allowing user-supplied system call operations

// * * * * * * * * * * * * * * * * * * * * * * * * * * * * * * * * * * * * * //
Create time

Create mesh for time = 0


SIMPLE: convergence criteria
    field U	 tolerance 0.0001
    field p	 tolerance 0.001
    field "(k|epsilon|omega)"	 tolerance 0.001

Reading field p

Reading field U

Reading/calculating face flux field phi

Selecting incompressible transport model Newtonian
Selecting turbulence model type RAS
Selecting RAS turbulence model kOmegaSST
Selecting patchDistMethod Poisson
smoothSolver:  Solving for yPsi, Initial residual = 1, Final residual = 0.999559, No Iterations 1000
bounding k, min: 0 max: 0 average: 0
RAS
{
    RASModel        kOmegaSST;
    turbulence      on;
    printCoeffs     on;
    alphaK1         0.85;
    alphaK2         1;
    alphaOmega1     0.5;
    alphaOmega2     0.856;
    gamma1          0.555556;
    gamma2          0.44;
    beta1           0.075;
    beta2           0.0828;
    betaStar        0.09;
    a1              0.31;
    b1              1;
    c1              10;
    F3              false;
    decayControl    false;
    kInf            0;
    omegaInf        0;
}

No MRF models present

No finite volume options present

Starting time loop

forceCoeffs forceCoeffs1:
    rho: rhoInf
    Freestream density (rhoInf) set to 1
    Not including porosity effects
    magUInf: 10
    lRef   : 1
    Aref   : 1
    rhoInf : 1
    Selecting all coefficients
    - Drag force: Cd
    - Drag force front: Cd(f)
    - Drag force rear: Cd(r)
    - Lift force: Cl
    - Lift force front: Cl(f)
    - Lift force rear: Cl(r)
    - Pitch moment: CmPitch
    - Roll moment: CmRoll
    - Yaw moment: CmYaw
    - Side force: Cs
    - Side force front: Cs(f)
    - Side force rear: Cs(r)


Time = 1

smoothSolver:  Solving for Ux, Initial residual = 1, Final residual = 0.0499308, No Iterations 2
smoothSolver:  Solving for Uy, Initial residual = 1, Final residual = 0.0544256, No Iterations 2
GAMG:  Solving for p, Initial residual = 1, Final residual = 0.0494658, No Iterations 28
GAMG:  Solving for p, Initial residual = 0.0217074, Final residual = 0.000969856, No Iterations 17
GAMG:  Solving for p, Initial residual = 0.00505304, Final residual = 0.000237546, No Iterations 26
GAMG:  Solving for p, Initial residual = 0.00530649, Final residual = 0.000212495, No Iterations 20
time step continuity errors : sum local = 0.000303765, global = -2.29318e-06, cumulative = -2.29318e-06
smoothSolver:  Solving for omega, Initial residual = 3.6259e-05, Final residual = 1.54561e-06, No Iterations 4
bounding omega, min: -134.743 max: 59176 average: 82.6563
smoothSolver:  Solving for k, Initial residual = 1, Final residual = 0.0287403, No Iterations 4
bounding k, min: 0 max: 5.43807e-15 average: 1.00817e-15
ExecutionTime = 4.65 s  ClockTime = 5 s

forceCoeffs forceCoeffs1 write:
    Coefficient	Total	Pressure	Viscous	Internal
    Cd:	2.48485	2.46485	0.0200024	0
    Cd(f):	1.23273	1.22273	0.0100005	0
    Cd(r):	1.25212	1.24211	0.0100018	0
    Cl:	0.0193829	0.0193816	1.28359e-06	0
    Cl(f):	-9.96142e-05	-0.000100053	4.38936e-07	0
    Cl(r):	0.0194825	0.0194817	8.4465e-07	0
    CmPitch:	-0.00979106	-0.00979086	-2.02857e-07	0
    CmRoll:	-0.00969145	-0.00969081	-6.41793e-07	0
    CmYaw:	1.24243	1.23242	0.0100012	0
    Cs:	1.04694e-21	1.05769e-21	-1.07508e-23	0
    Cs(f):	1.24243	1.23242	0.0100012	0
    Cs(r):	-1.24243	-1.23242	-0.0100012	0

    writing force and moment coefficient files.

Time = 2

smoothSolver:  Solving for Ux, Initial residual = 0.267427, Final residual = 0.0118378, No Iterations 2
smoothSolver:  Solving for Uy, Initial residual = 0.335883, Final residual = 0.0141862, No Iterations 2
GAMG:  Solving for p, Initial residual = 0.0400961, Final residual = 0.00197121, No Iterations 25
GAMG:  Solving for p, Initial residual = 0.0252407, Final residual = 0.00109263, No Iterations 21
GAMG:  Solving for p, Initial residual = 0.00869632, Final residual = 0.000388896, No Iterations 29
GAMG:  Solving for p, Initial residual = 0.00899257, Final residual = 0.000367188, No Iterations 21
time step continuity errors : sum local = 0.000195713, global = -1.99309e-06, cumulative = -4.28627e-06
smoothSolver:  Solving for omega, Initial residual = 6.10745e-05, Final residual = 1.82663e-06, No Iterations 4
bounding omega, min: -19.5879 max: 59176 average: 84.8991
smoothSolver:  Solving for k, Initial residual = 0.0784821, Final residual = 0.00252886, No Iterations 4
bounding k, min: 0 max: 2.87031e-14 average: 1.03886e-15
ExecutionTime = 5.96 s  ClockTime = 6 s

forceCoeffs forceCoeffs1 write:
    Coefficient	Total	Pressure	Viscous	Internal
    Cd:	3.41546	3.39624	0.0192218	0
    Cd(f):	1.69597	1.68635	0.00961696	0
    Cd(r):	1.71949	1.70989	0.00960482	0
    Cl:	0.0235227	0.0235348	-1.21442e-05	0
    Cl(f):	0.000289155	0.000295092	-5.93683e-06	0
    Cl(r):	0.0232335	0.0232398	-6.20734e-06	0
    CmPitch:	-0.0114722	-0.0114723	1.35257e-07	0
    CmRoll:	-0.0117614	-0.0117674	6.07208e-06	0
    CmYaw:	1.70773	1.69812	0.00961089	0
    Cs:	1.35802e-21	1.52853e-21	-1.70516e-22	0
    Cs(f):	1.70773	1.69812	0.00961089	0
    Cs(r):	-1.70773	-1.69812	-0.00961089	0

    writing force and moment coefficient files.

Time = 3

smoothSolver:  Solving for Ux, Initial residual = 0.14277, Final residual = 0.00683565, No Iterations 2
smoothSolver:  Solving for Uy, Initial residual = 0.229078, Final residual = 0.0102098, No Iterations 2
GAMG:  Solving for p, Initial residual = 0.029323, Final residual = 0.00130121, No Iterations 16
GAMG:  Solving for p, Initial residual = 0.0143347, Final residual = 0.000714186, No Iterations 25
GAMG:  Solving for p, Initial residual = 0.00959813, Final residual = 0.000451207, No Iterations 20
GAMG:  Solving for p, Initial residual = 0.00711927, Final residual = 0.000354391, No Iterations 18
time step continuity errors : sum local = 0.000107737, global = 1.13324e-06, cumulative = -3.15304e-06
smoothSolver:  Solving for omega, Initial residual = 6.50906e-05, Final residual = 1.77565e-06, No Iterations 4
bounding omega, min: -20.6175 max: 59176 average: 87.6791
smoothSolver:  Solving for k, Initial residual = 0.0286706, Final residual = 0.000656026, No Iterations 4
bounding k, min: 0 max: 1.42123e-13 average: 1.15456e-15
ExecutionTime = 7.09 s  ClockTime = 7 s

forceCoeffs forceCoeffs1 write:
    Coefficient	Total	Pressure	Viscous	Internal
    Cd:	3.18011	3.16115	0.0189587	0
    Cd(f):	1.5856	1.57611	0.00948254	0
    Cd(r):	1.59452	1.58504	0.00947612	0
    Cl:	0.00891971	0.00892613	-6.42035e-06	0
    Cl(f):	5.55134e-06	8.74088e-06	-3.18953e-06	0
    Cl(r):	0.00891416	0.00891739	-3.23081e-06	0
    CmPitch:	-0.0044543	-0.00445433	2.06376e-08	0
    CmRoll:	-0.00445986	-0.00446307	3.21017e-06	0
    CmYaw:	1.59006	1.58058	0.00947933	0
    Cs:	1.32656e-21	1.48237e-21	-1.5581e-22	0
    Cs(f):	1.59006	1.58058	0.00947933	0
    Cs(r):	-1.59006	-1.58058	-0.00947933	0

    writing force and moment coefficient files.

Time = 4

smoothSolver:  Solving for Ux, Initial residual = 0.0870793, Final residual = 0.00414865, No Iterations 2
smoothSolver:  Solving for Uy, Initial residual = 0.151026, Final residual = 0.00694439, No Iterations 2
GAMG:  Solving for p, Initial residual = 0.0492754, Final residual = 0.00242995, No Iterations 21
GAMG:  Solving for p, Initial residual = 0.229266, Final residual = 0.0111082, No Iterations 20
GAMG:  Solving for p, Initial residual = 0.0239795, Final residual = 0.000966838, No Iterations 27
GAMG:  Solving for p, Initial residual = 0.0223384, Final residual = 0.000892404, No Iterations 19
time step continuity errors : sum local = 0.000147735, global = 3.33669e-06, cumulative = 1.8365e-07
smoothSolver:  Solving for omega, Initial residual = 7.60703e-05, Final residual = 1.86516e-06, No Iterations 4
bounding omega, min: -182.582 max: 59176 average: 90.8137
smoothSolver:  Solving for k, Initial residual = 0.0170803, Final residual = 0.00150953, No Iterations 2
bounding k, min: -1.02051e-15 max: 6.46833e-13 average: 1.58643e-15
ExecutionTime = 8.37 s  ClockTime = 9 s

forceCoeffs forceCoeffs1 write:
    Coefficient	Total	Pressure	Viscous	Internal
    Cd:	2.17741	2.15869	0.0187185	0
    Cd(f):	1.09554	1.08618	0.00936162	0
    Cd(r):	1.08187	1.07252	0.00935686	0
    Cl:	-0.0136655	-0.0136607	-4.75839e-06	0
    Cl(f):	-0.000624336	-0.000622004	-2.33246e-06	0
    Cl(r):	-0.0130412	-0.0130387	-2.42592e-06	0
    CmPitch:	0.00620842	0.00620837	4.67289e-08	0
    CmRoll:	0.00683275	0.00683037	2.37919e-06	0
    CmYaw:	1.08871	1.07935	0.00935924	0
    Cs:	9.58646e-22	1.08708e-21	-1.2843e-22	0
    Cs(f):	1.08871	1.07935	0.00935924	0
    Cs(r):	-1.08871	-1.07935	-0.00935924	0

    writing force and moment coefficient files.

Time = 5

smoothSolver:  Solving for Ux, Initial residual = 0.0478487, Final residual = 0.00227581, No Iterations 2
smoothSolver:  Solving for Uy, Initial residual = 0.0867588, Final residual = 0.00406982, No Iterations 2
GAMG:  Solving for p, Initial residual = 0.0553239, Final residual = 0.00219992, No Iterations 22
GAMG:  Solving for p, Initial residual = 0.0698642, Final residual = 0.00345092, No Iterations 16
GAMG:  Solving for p, Initial residual = 0.0137834, Final residual = 0.000586688, No Iterations 21
GAMG:  Solving for p, Initial residual = 0.0145861, Final residual = 0.00069775, No Iterations 17
time step continuity errors : sum local = 0.000294839, global = 4.13328e-06, cumulative = 4.31693e-06
smoothSolver:  Solving for omega, Initial residual = 7.69299e-05, Final residual = 1.53427e-06, No Iterations 4
bounding omega, min: -84.3507 max: 59176 average: 93.8136
smoothSolver:  Solving for k, Initial residual = 0.0161039, Final residual = 0.000989697, No Iterations 2
bounding k, min: 0 max: 2.96889e-12 average: 3.34053e-15
ExecutionTime = 9.46 s  ClockTime = 10 s

forceCoeffs forceCoeffs1 write:
    Coefficient	Total	Pressure	Viscous	Internal
    Cd:	0.882874	0.864489	0.0183846	0
    Cd(f):	0.460672	0.451475	0.00919739	0
    Cd(r):	0.422201	0.413014	0.00918716	0
    Cl:	-0.0384707	-0.0384605	-1.02379e-05	0
    Cl(f):	-0.00165911	-0.00165441	-4.69519e-06	0
    Cl(r):	-0.0368116	-0.0368061	-5.54268e-06	0
    CmPitch:	0.0175762	0.0175758	4.23743e-07	0
    CmRoll:	0.0192354	0.0192302	5.11893e-06	0
    CmYaw:	0.441437	0.432245	0.00919228	0
    Cs:	4.4317e-22	5.39475e-22	-9.63055e-23	0
    Cs(f):	0.441437	0.432245	0.00919228	0
    Cs(r):	-0.441437	-0.432245	-0.00919228	0

    writing force and moment coefficient files.

Time = 6

smoothSolver:  Solving for Ux, Initial residual = 0.0174292, Final residual = 0.000892515, No Iterations 2
smoothSolver:  Solving for Uy, Initial residual = 0.0311905, Final residual = 0.00150209, No Iterations 2
GAMG:  Solving for p, Initial residual = 0.202906, Final residual = 0.00908025, No Iterations 22
GAMG:  Solving for p, Initial residual = 0.0577372, Final residual = 0.00267054, No Iterations 16
GAMG:  Solving for p, Initial residual = 0.0137928, Final residual = 0.000646321, No Iterations 21
GAMG:  Solving for p, Initial residual = 0.0151792, Final residual = 0.000726541, No Iterations 18
time step continuity errors : sum local = 0.000320946, global = 4.35091e-06, cumulative = 8.66784e-06
smoothSolver:  Solving for omega, Initial residual = 8.30879e-05, Final residual = 1.35918e-06, No Iterations 4
bounding omega, min: -60.7014 max: 59176 average: 96.526
smoothSolver:  Solving for k, Initial residual = 0.0159281, Final residual = 0.000749043, No Iterations 2
bounding k, min: -1.24352e-14 max: 1.40753e-11 average: 1.08291e-14
ExecutionTime = 10.57 s  ClockTime = 11 s

forceCoeffs forceCoeffs1 write:
    Coefficient	Total	Pressure	Viscous	Internal
    Cd:	-0.259977	-0.278018	0.0180412	0
    Cd(f):	-0.106972	-0.116013	0.00904083	0
    Cd(r):	-0.153005	-0.162005	0.00900038	0
    Cl:	-0.0460325	-0.0459921	-4.04453e-05	0
    Cl(f):	-0.00143739	-0.00141894	-1.84468e-05	0
    Cl(r):	-0.0445951	-0.0445731	-2.19985e-05	0
    CmPitch:	0.0215789	0.0215771	1.77582e-06	0
    CmRoll:	0.0230163	0.022996	2.02227e-05	0
    CmYaw:	-0.129988	-0.139009	0.00902061	0
    Cs:	-3.49788e-23	-1.1718e-23	-2.32608e-23	0
    Cs(f):	-0.129988	-0.139009	0.00902061	0
    Cs(r):	0.129988	0.139009	-0.00902061	0

    writing force and moment coefficient files.

Time = 7

smoothSolver:  Solving for Ux, Initial residual = 0.01551, Final residual = 0.000959561, No Iterations 2
smoothSolver:  Solving for Uy, Initial residual = 0.0273643, Final residual = 0.00149273, No Iterations 2
GAMG:  Solving for p, Initial residual = 0.125348, Final residual = 0.00587298, No Iterations 19
GAMG:  Solving for p, Initial residual = 0.071048, Final residual = 0.00318112, No Iterations 19
GAMG:  Solving for p, Initial residual = 0.0213591, Final residual = 0.000956424, No Iterations 23
GAMG:  Solving for p, Initial residual = 0.0240692, Final residual = 0.00120205, No Iterations 18
time step continuity errors : sum local = 0.000285755, global = 3.96109e-06, cumulative = 1.26289e-05
smoothSolver:  Solving for omega, Initial residual = 8.87295e-05, Final residual = 1.43468e-06, No Iterations 4
bounding omega, min: -6.44164 max: 59176 average: 99.7245
smoothSolver:  Solving for k, Initial residual = 0.0160353, Final residual = 0.00061756, No Iterations 2
bounding k, min: -5.89275e-15 max: 6.71926e-11 average: 4.37151e-14
ExecutionTime = 11.69 s  ClockTime = 12 s

forceCoeffs forceCoeffs1 write:
    Coefficient	Total	Pressure	Viscous	Internal
    Cd:	-0.982325	-0.999789	0.0174641	0
    Cd(f):	-0.47256	-0.481357	0.00879703	0
    Cd(r):	-0.509764	-0.518432	0.00866704	0
    Cl:	-0.0372044	-0.0370744	-0.000129985	0
    Cl(f):	-0.000721005	-0.000659364	-6.16406e-05	0
    Cl(r):	-0.0364834	-0.0364151	-6.83446e-05	0
    CmPitch:	0.0178812	0.0178779	3.352e-06	0
    CmRoll:	0.0186022	0.0185372	6.49926e-05	0
    CmYaw:	-0.491162	-0.499894	0.00873203	0
    Cs:	-3.48674e-22	-3.93011e-22	4.43373e-23	0
    Cs(f):	-0.491162	-0.499894	0.00873203	0
    Cs(r):	0.491162	0.499894	-0.00873203	0

    writing force and moment coefficient files.

Time = 8

smoothSolver:  Solving for Ux, Initial residual = 0.0325493, Final residual = 0.00180752, No Iterations 2
smoothSolver:  Solving for Uy, Initial residual = 0.0623862, Final residual = 0.0033244, No Iterations 2
GAMG:  Solving for p, Initial residual = 0.0831364, Final residual = 0.00346467, No Iterations 16
GAMG:  Solving for p, Initial residual = 0.0707602, Final residual = 0.00333685, No Iterations 18
GAMG:  Solving for p, Initial residual = 0.0300738, Final residual = 0.00148393, No Iterations 23
GAMG:  Solving for p, Initial residual = 0.0347589, Final residual = 0.00157806, No Iterations 18
time step continuity errors : sum local = 0.000192073, global = 3.44066e-06, cumulative = 1.60696e-05
smoothSolver:  Solving for omega, Initial residual = 9.99072e-05, Final residual = 1.51963e-06, No Iterations 4
bounding omega, min: -18.407 max: 59176 average: 102.788
smoothSolver:  Solving for k, Initial residual = 0.0160486, Final residual = 0.000489954, No Iterations 2
bounding k, min: -1.04869e-13 max: 3.23779e-10 average: 1.94047e-13
ExecutionTime = 12.79 s  ClockTime = 14 s

forceCoeffs forceCoeffs1 write:
    Coefficient	Total	Pressure	Viscous	Internal
    Cd:	-1.22247	-1.23922	0.0167427	0
    Cd(f):	-0.604862	-0.613281	0.00841913	0
    Cd(r):	-0.617611	-0.625935	0.00832357	0
    Cl:	-0.0127494	-0.0126538	-9.55598e-05	0
    Cl(f):	0.000501	0.00054611	-4.51097e-05	0
    Cl(r):	-0.0132504	-0.0131999	-5.04501e-05	0
    CmPitch:	0.0068757	0.00687303	2.6702e-06	0
    CmRoll:	0.0063747	0.00632692	4.77799e-05	0
    CmYaw:	-0.611236	-0.619608	0.00837135	0
    Cs:	-5.5824e-22	-5.98301e-22	4.00603e-23	0
    Cs(f):	-0.611236	-0.619608	0.00837135	0
    Cs(r):	0.611236	0.619608	-0.00837135	0

    writing force and moment coefficient files.

Time = 9

smoothSolver:  Solving for Ux, Initial residual = 0.0399578, Final residual = 0.00207604, No Iterations 2
smoothSolver:  Solving for Uy, Initial residual = 0.0808766, Final residual = 0.00421385, No Iterations 2
GAMG:  Solving for p, Initial residual = 0.0847694, Final residual = 0.00398683, No Iterations 13
GAMG:  Solving for p, Initial residual = 0.114665, Final residual = 0.00547557, No Iterations 22
GAMG:  Solving for p, Initial residual = 0.03999, Final residual = 0.00173129, No Iterations 21
GAMG:  Solving for p, Initial residual = 0.0242061, Final residual = 0.00117524, No Iterations 16
time step continuity errors : sum local = 0.00014782, global = -5.05887e-07, cumulative = 1.55637e-05
smoothSolver:  Solving for omega, Initial residual = 0.000108815, Final residual = 1.66319e-06, No Iterations 4
bounding omega, min: -4.17027 max: 59176 average: 106.463
smoothSolver:  Solving for k, Initial residual = 0.0164602, Final residual = 0.000389132, No Iterations 2
bounding k, min: -3.45751e-12 max: 1.57573e-09 average: 9.04094e-13
ExecutionTime = 13.89 s  ClockTime = 15 s

forceCoeffs forceCoeffs1 write:
    Coefficient	Total	Pressure	Viscous	Internal
    Cd:	-1.05728	-1.07311	0.0158257	0
    Cd(f):	-0.536737	-0.544697	0.00795958	0
    Cd(r):	-0.520544	-0.52841	0.00786609	0
    Cl:	0.0161928	0.0162863	-9.34899e-05	0
    Cl(f):	0.00300527	0.00304853	-4.32598e-05	0
    Cl(r):	0.0131875	0.0132378	-5.02302e-05	0
    CmPitch:	-0.00509114	-0.00509462	3.4852e-06	0
    CmRoll:	-0.0080964	-0.00814315	4.6745e-05	0
    CmYaw:	-0.528641	-0.536553	0.00791284	0
    Cs:	-4.1447e-22	-5.78273e-22	1.63804e-22	0
    Cs(f):	-0.528641	-0.536553	0.00791284	0
    Cs(r):	0.528641	0.536553	-0.00791284	0

    writing force and moment coefficient files.

Time = 10

smoothSolver:  Solving for Ux, Initial residual = 0.0344342, Final residual = 0.00172288, No Iterations 2
smoothSolver:  Solving for Uy, Initial residual = 0.0726642, Final residual = 0.0037854, No Iterations 2
GAMG:  Solving for p, Initial residual = 0.136628, Final residual = 0.00556566, No Iterations 16
GAMG:  Solving for p, Initial residual = 0.0554207, Final residual = 0.0026753, No Iterations 16
GAMG:  Solving for p, Initial residual = 0.0169204, Final residual = 0.000823046, No Iterations 22
GAMG:  Solving for p, Initial residual = 0.0133121, Final residual = 0.000611601, No Iterations 14
time step continuity errors : sum local = 0.000121241, global = -2.28322e-06, cumulative = 1.32805e-05
smoothSolver:  Solving for omega, Initial residual = 0.000113385, Final residual = 1.66088e-06, No Iterations 4
bounding omega, min: -6.49579 max: 59176 average: 110.54
smoothSolver:  Solving for k, Initial residual = 0.0165682, Final residual = 0.000322896, No Iterations 2
bounding k, min: -2.32522e-13 max: 7.73011e-09 average: 4.29854e-12
ExecutionTime = 15.77 s  ClockTime = 17 s

forceCoeffs forceCoeffs1 write:
    Coefficient	Total	Pressure	Viscous	Internal
    Cd:	-0.655259	-0.670129	0.0148696	0
    Cd(f):	-0.348556	-0.35603	0.00747385	0
    Cd(r):	-0.306703	-0.314099	0.00739571	0
    Cl:	0.0418526	0.0419307	-7.81387e-05	0
    Cl(f):	0.00571745	0.00575398	-3.65312e-05	0
    Cl(r):	0.0361351	0.0361768	-4.16075e-05	0
    CmPitch:	-0.0152088	-0.0152114	2.53812e-06	0
    CmRoll:	-0.0209263	-0.0209654	3.90694e-05	0
    CmYaw:	-0.32763	-0.335064	0.00743478	0
    Cs:	-4.49349e-22	-4.47282e-22	-2.06608e-24	0
    Cs(f):	-0.32763	-0.335064	0.00743478	0
    Cs(r):	0.32763	0.335064	-0.00743478	0

    writing force and moment coefficient files.

Time = 11

smoothSolver:  Solving for Ux, Initial residual = 0.0203659, Final residual = 0.001063, No Iterations 2
smoothSolver:  Solving for Uy, Initial residual = 0.0417316, Final residual = 0.00211763, No Iterations 2
GAMG:  Solving for p, Initial residual = 0.420867, Final residual = 0.0161336, No Iterations 18
GAMG:  Solving for p, Initial residual = 0.065433, Final residual = 0.00267365, No Iterations 16
GAMG:  Solving for p, Initial residual = 0.0178962, Final residual = 0.000772631, No Iterations 19
GAMG:  Solving for p, Initial residual = 0.0176623, Final residual = 0.000844359, No Iterations 15
time step continuity errors : sum local = 0.000166336, global = -2.66198e-06, cumulative = 1.06185e-05
smoothSolver:  Solving for omega, Initial residual = 0.000110768, Final residual = 1.56374e-06, No Iterations 4
bounding omega, min: -4.51663 max: 59176 average: 114.688
smoothSolver:  Solving for k, Initial residual = 0.0167149, Final residual = 0.00029034, No Iterations 2
bounding k, min: -1.28006e-11 max: 3.81286e-08 average: 2.06688e-11
ExecutionTime = 16.79 s  ClockTime = 18 s

forceCoeffs forceCoeffs1 write:
    Coefficient	Total	Pressure	Viscous	Internal
    Cd:	-0.202	-0.216002	0.0140025	0
    Cd(f):	-0.131194	-0.13822	0.00702618	0
    Cd(r):	-0.070806	-0.0777824	0.00697633	0
    Cl:	0.0603878	0.0604377	-4.98427e-05	0
    Cl(f):	0.00736617	0.00738949	-2.33216e-05	0
    Cl(r):	0.0530217	0.0530482	-2.65211e-05	0
    CmPitch:	-0.0228277	-0.0228293	1.59976e-06	0
    CmRoll:	-0.0301939	-0.0302188	2.49214e-05	0
    CmYaw:	-0.101	-0.108001	0.00700126	0
    Cs:	-1.55916e-22	-2.50723e-22	9.48075e-23	0
    Cs(f):	-0.101	-0.108001	0.00700126	0
    Cs(r):	0.101	0.108001	-0.00700126	0

    writing force and moment coefficient files.

Time = 12

smoothSolver:  Solving for Ux, Initial residual = 0.00925146, Final residual = 0.000623231, No Iterations 2
smoothSolver:  Solving for Uy, Initial residual = 0.0181074, Final residual = 0.00104513, No Iterations 2
GAMG:  Solving for p, Initial residual = 0.138618, Final residual = 0.00629421, No Iterations 18
GAMG:  Solving for p, Initial residual = 0.0789894, Final residual = 0.00372084, No Iterations 16
GAMG:  Solving for p, Initial residual = 0.0244498, Final residual = 0.00096249, No Iterations 21
GAMG:  Solving for p, Initial residual = 0.0265416, Final residual = 0.00123239, No Iterations 16
time step continuity errors : sum local = 0.000182625, global = -3.08628e-06, cumulative = 7.53221e-06
smoothSolver:  Solving for omega, Initial residual = 9.84592e-05, Final residual = 1.36645e-06, No Iterations 4
bounding omega, min: -2.70139 max: 59176 average: 118.468
smoothSolver:  Solving for k, Initial residual = 0.0170066, Final residual = 0.00027567, No Iterations 2
bounding k, min: -5.70399e-11 max: 1.87039e-07 average: 1.00283e-10
ExecutionTime = 17.99 s  ClockTime = 19 s

forceCoeffs forceCoeffs1 write:
    Coefficient	Total	Pressure	Viscous	Internal
    Cd:	0.162428	0.149113	0.0133149	0
    Cd(f):	0.0500741	0.0434134	0.00666065	0
    Cd(r):	0.112354	0.1057	0.00665424	0
    Cl:	0.0622797	0.0622861	-6.40517e-06	0
    Cl(f):	0.00757315	0.00757701	-3.8557e-06	0
    Cl(r):	0.0547066	0.0547091	-2.54947e-06	0
    CmPitch:	-0.0235667	-0.0235661	-6.53114e-07	0
    CmRoll:	-0.0311399	-0.0311431	3.20258e-06	0
    CmYaw:	0.0812139	0.0745565	0.00665744	0
    Cs:	-1.6804e-23	-5.22383e-23	3.54343e-23	0
    Cs(f):	0.0812139	0.0745565	0.00665744	0
    Cs(r):	-0.0812139	-0.0745565	-0.00665744	0

    writing force and moment coefficient files.

Time = 13

smoothSolver:  Solving for Ux, Initial residual = 0.0138937, Final residual = 0.000853247, No Iterations 2
smoothSolver:  Solving for Uy, Initial residual = 0.0284813, Final residual = 0.00162328, No Iterations 2
GAMG:  Solving for p, Initial residual = 0.0953881, Final residual = 0.0045028, No Iterations 13
GAMG:  Solving for p, Initial residual = 0.0898561, Final residual = 0.0038993, No Iterations 17
GAMG:  Solving for p, Initial residual = 0.0340665, Final residual = 0.00150895, No Iterations 21
GAMG:  Solving for p, Initial residual = 0.0411145, Final residual = 0.00198081, No Iterations 16
time step continuity errors : sum local = 0.000177368, global = -3.23455e-06, cumulative = 4.29766e-06
smoothSolver:  Solving for omega, Initial residual = 8.10571e-05, Final residual = 1.2806e-06, No Iterations 4
bounding omega, min: -32.1739 max: 59176 average: 121.602
smoothSolver:  Solving for k, Initial residual = 0.0171767, Final residual = 0.000273109, No Iterations 2
bounding k, min: -8.64683e-11 max: 9.03794e-07 average: 4.88179e-10
ExecutionTime = 19.05 s  ClockTime = 20 s

forceCoeffs forceCoeffs1 write:
    Coefficient	Total	Pressure	Viscous	Internal
    Cd:	0.36809	0.355248	0.0128421	0
    Cd(f):	0.159544	0.153138	0.00640642	0
    Cd(r):	0.208546	0.20211	0.00643565	0
    Cl:	0.0490013	0.0489721	2.92383e-05	0
    Cl(f):	0.00635711	0.00634509	1.20192e-05	0
    Cl(r):	0.0426442	0.042627	1.72191e-05	0
    CmPitch:	-0.0181436	-0.018141	-2.59992e-06	0
    CmRoll:	-0.0245007	-0.024486	-1.46191e-05	0
    CmYaw:	0.184045	0.177624	0.00642103	0
    Cs:	1.14744e-22	9.48208e-23	1.99233e-23	0
    Cs(f):	0.184045	0.177624	0.00642103	0
    Cs(r):	-0.184045	-0.177624	-0.00642103	0

    writing force and moment coefficient files.

Time = 14

smoothSolver:  Solving for Ux, Initial residual = 0.0151903, Final residual = 0.000835234, No Iterations 2
smoothSolver:  Solving for Uy, Initial residual = 0.032056, Final residual = 0.00173683, No Iterations 2
GAMG:  Solving for p, Initial residual = 0.0859467, Final residual = 0.00354372, No Iterations 14
GAMG:  Solving for p, Initial residual = 0.148296, Final residual = 0.00677203, No Iterations 17
GAMG:  Solving for p, Initial residual = 0.0928228, Final residual = 0.00432892, No Iterations 19
GAMG:  Solving for p, Initial residual = 0.0899761, Final residual = 0.00400994, No Iterations 16
time step continuity errors : sum local = 0.000134531, global = -2.28513e-06, cumulative = 2.01254e-06
smoothSolver:  Solving for omega, Initial residual = 6.74498e-05, Final residual = 1.06698e-06, No Iterations 4
bounding omega, min: -29.9719 max: 59176 average: 124.191
smoothSolver:  Solving for k, Initial residual = 0.017252, Final residual = 0.0002741, No Iterations 2
bounding k, min: -2.10493e-09 max: 4.45895e-06 average: 2.37319e-09
ExecutionTime = 20.04 s  ClockTime = 21 s

forceCoeffs forceCoeffs1 write:
    Coefficient	Total	Pressure	Viscous	Internal
    Cd:	0.413307	0.400789	0.0125186	0
    Cd(f):	0.195414	0.189174	0.00623973	0
    Cd(r):	0.217893	0.211614	0.00627883	0
    Cl:	0.0224793	0.0224402	3.90965e-05	0
    Cl(f):	0.00349163	0.00347473	1.68985e-05	0
    Cl(r):	0.0189877	0.0189655	2.2198e-05	0
    CmPitch:	-0.00774803	-0.00774538	-2.64974e-06	0
    CmRoll:	-0.0112397	-0.0112201	-1.95483e-05	0
    CmYaw:	0.206654	0.200394	0.00625928	0
    Cs:	1.85027e-22	1.65884e-22	1.91431e-23	0
    Cs(f):	0.206654	0.200394	0.00625928	0
    Cs(r):	-0.206654	-0.200394	-0.00625928	0

    writing force and moment coefficient files.

Time = 15

smoothSolver:  Solving for Ux, Initial residual = 0.0127064, Final residual = 0.000662418, No Iterations 2
smoothSolver:  Solving for Uy, Initial residual = 0.0278079, Final residual = 0.00144, No Iterations 2
GAMG:  Solving for p, Initial residual = 0.113338, Final residual = 0.00475444, No Iterations 16
GAMG:  Solving for p, Initial residual = 0.103947, Final residual = 0.00462682, No Iterations 18
GAMG:  Solving for p, Initial residual = 0.0383124, Final residual = 0.00190247, No Iterations 19
GAMG:  Solving for p, Initial residual = 0.027044, Final residual = 0.0012065, No Iterations 15
time step continuity errors : sum local = 0.000107405, global = -4.28197e-07, cumulative = 1.58434e-06
smoothSolver:  Solving for omega, Initial residual = 5.95804e-05, Final residual = 9.38112e-07, No Iterations 4
bounding omega, min: -23.5205 max: 59176 average: 126.396
smoothSolver:  Solving for k, Initial residual = 0.017297, Final residual = 0.000267269, No Iterations 2
bounding k, min: -2.2814e-09 max: 2.19356e-05 average: 1.1584e-08
ExecutionTime = 21.17 s  ClockTime = 22 s

forceCoeffs forceCoeffs1 write:
    Coefficient	Total	Pressure	Viscous	Internal
    Cd:	0.339504	0.327224	0.01228	0
    Cd(f):	0.172498	0.166379	0.00611904	0
    Cd(r):	0.167006	0.160845	0.00616093	0
    Cl:	-0.00549217	-0.00553407	4.18915e-05	0
    Cl(f):	0.000257629	0.0002393	1.83294e-05	0
    Cl(r):	-0.0057498	-0.00577337	2.35621e-05	0
    CmPitch:	0.00300372	0.00300633	-2.61635e-06	0
    CmRoll:	0.00274609	0.00276703	-2.09457e-05	0
    CmYaw:	0.169752	0.163612	0.00613998	0
    Cs:	1.98371e-22	1.71873e-22	2.6498e-23	0
    Cs(f):	0.169752	0.163612	0.00613998	0
    Cs(r):	-0.169752	-0.163612	-0.00613998	0

    writing force and moment coefficient files.

Time = 16

smoothSolver:  Solving for Ux, Initial residual = 0.00864597, Final residual = 0.000453287, No Iterations 2
smoothSolver:  Solving for Uy, Initial residual = 0.0189343, Final residual = 0.000957411, No Iterations 2
GAMG:  Solving for p, Initial residual = 0.210019, Final residual = 0.00903238, No Iterations 18
GAMG:  Solving for p, Initial residual = 0.0713657, Final residual = 0.00342267, No Iterations 14
GAMG:  Solving for p, Initial residual = 0.0224597, Final residual = 0.00106721, No Iterations 23
GAMG:  Solving for p, Initial residual = 0.0184844, Final residual = 0.000858595, No Iterations 12
time step continuity errors : sum local = 8.72439e-05, global = 8.3717e-07, cumulative = 2.42151e-06
smoothSolver:  Solving for omega, Initial residual = 5.57167e-05, Final residual = 8.76447e-07, No Iterations 4
bounding omega, min: -2.3153 max: 59176.2 average: 128.457
smoothSolver:  Solving for k, Initial residual = 0.0167948, Final residual = 0.000253799, No Iterations 2
bounding k, min: -2.00385e-09 max: 0.000107038 average: 5.65012e-08
ExecutionTime = 22.3 s  ClockTime = 23 s

forceCoeffs forceCoeffs1 write:
    Coefficient	Total	Pressure	Viscous	Internal
    Cd:	0.207654	0.19559	0.0120642	0
    Cd(f):	0.117532	0.111518	0.00601367	0
    Cd(r):	0.0901229	0.0840723	0.00605054	0
    Cl:	-0.0274088	-0.0274456	3.68692e-05	0
    Cl(f):	-0.002212	-0.002229	1.69927e-05	0
    Cl(r):	-0.0251968	-0.0252166	1.98764e-05	0
    CmPitch:	0.0114924	0.0114938	-1.44186e-06	0
    CmRoll:	0.0137044	0.0137228	-1.84346e-05	0
    CmYaw:	0.103827	0.0977951	0.0060321	0
    Cs:	1.44429e-22	1.29687e-22	1.47418e-23	0
    Cs(f):	0.103827	0.0977951	0.0060321	0
    Cs(r):	-0.103827	-0.0977951	-0.0060321	0

    writing force and moment coefficient files.

Time = 17

smoothSolver:  Solving for Ux, Initial residual = 0.00489921, Final residual = 0.000292683, No Iterations 2
smoothSolver:  Solving for Uy, Initial residual = 0.0100667, Final residual = 0.000545793, No Iterations 2
GAMG:  Solving for p, Initial residual = 0.309612, Final residual = 0.013277, No Iterations 17
GAMG:  Solving for p, Initial residual = 0.0728378, Final residual = 0.00321359, No Iterations 17
GAMG:  Solving for p, Initial residual = 0.0228845, Final residual = 0.00111363, No Iterations 17
GAMG:  Solving for p, Initial residual = 0.0205112, Final residual = 0.00100519, No Iterations 14
time step continuity errors : sum local = 8.34398e-05, global = 1.2957e-06, cumulative = 3.71721e-06
smoothSolver:  Solving for omega, Initial residual = 5.3878e-05, Final residual = 8.44513e-07, No Iterations 4
bounding omega, min: -6.11548 max: 59176.9 average: 130.457
smoothSolver:  Solving for k, Initial residual = 0.016748, Final residual = 0.000247861, No Iterations 2
bounding k, min: -1.2379e-08 max: 0.000519074 average: 2.75038e-07
ExecutionTime = 23.35 s  ClockTime = 24 s

forceCoeffs forceCoeffs1 write:
    Coefficient	Total	Pressure	Viscous	Internal
    Cd:	0.0732011	0.0613735	0.0118276	0
    Cd(f):	0.0570748	0.0511751	0.00589968	0
    Cd(r):	0.0161263	0.0101984	0.00592792	0
    Cl:	-0.0409484	-0.0409767	2.82428e-05	0
    Cl(f):	-0.00413194	-0.00414613	1.41848e-05	0
    Cl(r):	-0.0368165	-0.0368305	1.40581e-05	0
    CmPitch:	0.0163423	0.0163422	6.33601e-08	0
    CmRoll:	0.0204742	0.0204883	-1.41214e-05	0
    CmYaw:	0.0366006	0.0306868	0.0059138	0
    Cs:	7.79039e-23	6.74717e-23	1.04322e-23	0
    Cs(f):	0.0366006	0.0306868	0.0059138	0
    Cs(r):	-0.0366006	-0.0306868	-0.0059138	0

    writing force and moment coefficient files.

Time = 18

smoothSolver:  Solving for Ux, Initial residual = 0.00450537, Final residual = 0.000280861, No Iterations 2
smoothSolver:  Solving for Uy, Initial residual = 0.0101527, Final residual = 0.000576753, No Iterations 2
GAMG:  Solving for p, Initial residual = 0.171373, Final residual = 0.0074884, No Iterations 13
GAMG:  Solving for p, Initial residual = 0.103052, Final residual = 0.00475326, No Iterations 17
GAMG:  Solving for p, Initial residual = 0.0378655, Final residual = 0.00165997, No Iterations 19
GAMG:  Solving for p, Initial residual = 0.0376526, Final residual = 0.00168259, No Iterations 17
time step continuity errors : sum local = 7.53977e-05, global = 1.63865e-06, cumulative = 5.35587e-06
smoothSolver:  Solving for omega, Initial residual = 5.43594e-05, Final residual = 8.49062e-07, No Iterations 4
bounding omega, min: -2.87408 max: 59180.8 average: 132.515
smoothSolver:  Solving for k, Initial residual = 0.0167572, Final residual = 0.000232992, No Iterations 2
bounding k, min: -1.82814e-06 max: 0.00250023 average: 1.34571e-06
ExecutionTime = 24.4 s  ClockTime = 25 s

forceCoeffs forceCoeffs1 write:
    Coefficient	Total	Pressure	Viscous	Internal
    Cd:	-0.0272346	-0.0387914	0.0115568	0
    Cd(f):	0.00725963	0.00148995	0.00576968	0
    Cd(r):	-0.0344943	-0.0402813	0.00578708	0
    Cl:	-0.0417539	-0.0417713	1.74027e-05	0
    Cl(f):	-0.00496129	-0.00497148	1.01844e-05	0
    Cl(r):	-0.0367926	-0.0367998	7.2183e-06	0
    CmPitch:	0.0159156	0.0159142	1.48306e-06	0
    CmRoll:	0.0208769	0.0208856	-8.70137e-06	0
    CmYaw:	-0.0136173	-0.0193957	0.00577838	0
    Cs:	6.62464e-24	1.85361e-23	-1.19114e-23	0
    Cs(f):	-0.0136173	-0.0193957	0.00577838	0
    Cs(r):	0.0136173	0.0193957	-0.00577838	0

    writing force and moment coefficient files.

Time = 19

smoothSolver:  Solving for Ux, Initial residual = 0.0056049, Final residual = 0.000315594, No Iterations 2
smoothSolver:  Solving for Uy, Initial residual = 0.0125399, Final residual = 0.000689139, No Iterations 2
GAMG:  Solving for p, Initial residual = 0.141704, Final residual = 0.00601908, No Iterations 11
GAMG:  Solving for p, Initial residual = 0.216849, Final residual = 0.0106035, No Iterations 16
GAMG:  Solving for p, Initial residual = 0.0992577, Final residual = 0.00464302, No Iterations 19
GAMG:  Solving for p, Initial residual = 0.0734253, Final residual = 0.00333688, No Iterations 17
time step continuity errors : sum local = 7.35123e-05, global = 1.87007e-06, cumulative = 7.22594e-06
smoothSolver:  Solving for omega, Initial residual = 5.51545e-05, Final residual = 8.40613e-07, No Iterations 4
bounding omega, min: -3.40628 max: 59199.8 average: 134.645
smoothSolver:  Solving for k, Initial residual = 0.0168859, Final residual = 0.000221114, No Iterations 2
bounding k, min: -2.26278e-06 max: 0.0119459 average: 6.60543e-06
ExecutionTime = 25.38 s  ClockTime = 26 s

forceCoeffs forceCoeffs1 write:
    Coefficient	Total	Pressure	Viscous	Internal
    Cd:	-0.0807841	-0.0920343	0.0112502	0
    Cd(f):	-0.0240702	-0.0296901	0.00561983	0
    Cd(r):	-0.0567139	-0.0623442	0.00563033	0
    Cl:	-0.0326437	-0.0326542	1.04941e-05	0
    Cl(f):	-0.00464997	-0.00465741	7.44822e-06	0
    Cl(r):	-0.0279937	-0.0279967	3.04593e-06	0
    CmPitch:	0.0116719	0.0116697	2.20114e-06	0
    CmRoll:	0.0163218	0.0163271	-5.24707e-06	0
    CmYaw:	-0.0403921	-0.0460171	0.00562508	0
    Cs:	-2.22544e-23	-5.14516e-24	-1.71093e-23	0
    Cs(f):	-0.0403921	-0.0460171	0.00562508	0
    Cs(r):	0.0403921	0.0460171	-0.00562508	0

    writing force and moment coefficient files.

Time = 20

smoothSolver:  Solving for Ux, Initial residual = 0.00536957, Final residual = 0.000286847, No Iterations 2
smoothSolver:  Solving for Uy, Initial residual = 0.0122281, Final residual = 0.000646192, No Iterations 2
GAMG:  Solving for p, Initial residual = 0.171404, Final residual = 0.00844612, No Iterations 12
GAMG:  Solving for p, Initial residual = 0.0907301, Final residual = 0.00413931, No Iterations 18
GAMG:  Solving for p, Initial residual = 0.0410196, Final residual = 0.00192451, No Iterations 19
GAMG:  Solving for p, Initial residual = 0.0265837, Final residual = 0.0012943, No Iterations 16
time step continuity errors : sum local = 7.10913e-05, global = 1.24796e-06, cumulative = 8.4739e-06
smoothSolver:  Solving for omega, Initial residual = 5.55977e-05, Final residual = 8.02793e-07, No Iterations 4
bounding omega, min: -3.88167 max: 59295.7 average: 136.916
smoothSolver:  Solving for k, Initial residual = 0.012914, Final residual = 0.000157474, No Iterations 2
bounding k, min: -1.75736e-06 max: 0.0402735 average: 2.70132e-05
ExecutionTime = 27.04 s  ClockTime = 28 s

forceCoeffs forceCoeffs1 write:
    Coefficient	Total	Pressure	Viscous	Internal
    Cd:	-0.0908186	-0.101735	0.0109167	0
    Cd(f):	-0.0368021	-0.042258	0.00545587	0
    Cd(r):	-0.0540165	-0.0594774	0.00546087	0
    Cl:	-0.0172144	-0.0172194	4.997e-06	0
    Cl(f):	-0.00343912	-0.00344357	4.4435e-06	0
    Cl(r):	-0.0137753	-0.0137758	5.53505e-07	0
    CmPitch:	0.00516808	0.00516613	1.945e-06	0
    CmRoll:	0.0086072	0.0086097	-2.4985e-06	0
    CmYaw:	-0.0454093	-0.0508677	0.00545837	0
    Cs:	-3.08692e-23	-9.48065e-24	-2.13886e-23	0
    Cs(f):	-0.0454093	-0.0508677	0.00545837	0
    Cs(r):	0.0454093	0.0508677	-0.00545837	0

    writing force and moment coefficient files.

Time = 21

smoothSolver:  Solving for Ux, Initial residual = 0.00414985, Final residual = 0.000219485, No Iterations 2
smoothSolver:  Solving for Uy, Initial residual = 0.00974072, Final residual = 0.000495374, No Iterations 2
GAMG:  Solving for p, Initial residual = 0.399298, Final residual = 0.0187632, No Iterations 12
GAMG:  Solving for p, Initial residual = 0.0570456, Final residual = 0.00283771, No Iterations 17
GAMG:  Solving for p, Initial residual = 0.0244614, Final residual = 0.00111897, No Iterations 19
GAMG:  Solving for p, Initial residual = 0.0186677, Final residual = 0.000842633, No Iterations 15
time step continuity errors : sum local = 5.65296e-05, global = 4.75154e-07, cumulative = 8.94905e-06
smoothSolver:  Solving for omega, Initial residual = 5.55926e-05, Final residual = 7.41304e-07, No Iterations 4
bounding omega, min: -5.14022 max: 59562 average: 139.426
smoothSolver:  Solving for k, Initial residual = 0.00621085, Final residual = 7.64291e-05, No Iterations 2
bounding k, min: -1.10355e-06 max: 0.0864445 average: 6.90517e-05
ExecutionTime = 28.17 s  ClockTime = 29 s

forceCoeffs forceCoeffs1 write:
    Coefficient	Total	Pressure	Viscous	Internal
    Cd:	-0.0709589	-0.0815389	0.01058	0
    Cd(f):	-0.0350653	-0.0403537	0.00528847	0
    Cd(r):	-0.0358937	-0.0411852	0.00529154	0
    Cl:	-0.000828425	-0.000831494	3.06934e-06	0
    Cl(f):	-0.00168109	-0.00168422	3.13361e-06	0
    Cl(r):	0.000852664	0.000852728	-6.42697e-08	0
    CmPitch:	-0.00126688	-0.00126848	1.59894e-06	0
    CmRoll:	0.000414212	0.000415747	-1.53467e-06	0
    CmYaw:	-0.0354795	-0.0407695	0.00529	0
    Cs:	-8.69328e-24	-5.2192e-24	-3.47407e-24	0
    Cs(f):	-0.0354795	-0.0407695	0.00529	0
    Cs(r):	0.0354795	0.0407695	-0.00529	0

    writing force and moment coefficient files.

Time = 22

smoothSolver:  Solving for Ux, Initial residual = 0.00264444, Final residual = 0.000143758, No Iterations 2
smoothSolver:  Solving for Uy, Initial residual = 0.00645046, Final residual = 0.000330232, No Iterations 2
GAMG:  Solving for p, Initial residual = 0.180947, Final residual = 0.00758042, No Iterations 12
GAMG:  Solving for p, Initial residual = 0.0464923, Final residual = 0.00224473, No Iterations 15
GAMG:  Solving for p, Initial residual = 0.0192613, Final residual = 0.000870033, No Iterations 20
GAMG:  Solving for p, Initial residual = 0.0160122, Final residual = 0.000752744, No Iterations 12
time step continuity errors : sum local = 4.78231e-05, global = -3.26799e-09, cumulative = 8.94578e-06
smoothSolver:  Solving for omega, Initial residual = 5.43679e-05, Final residual = 7.33492e-07, No Iterations 4
bounding omega, min: -0.8631 max: 59972.6 average: 142.215
smoothSolver:  Solving for k, Initial residual = 0.00316567, Final residual = 4.35648e-05, No Iterations 2
bounding k, min: -4.96815e-06 max: 0.142242 average: 0.000128081
ExecutionTime = 29.17 s  ClockTime = 30 s

forceCoeffs forceCoeffs1 write:
    Coefficient	Total	Pressure	Viscous	Internal
    Cd:	-0.0375894	-0.0478482	0.0102588	0
    Cd(f):	-0.0250089	-0.0301363	0.00512739	0
    Cd(r):	-0.0125804	-0.0177118	0.0051314	0
    Cl:	0.0124285	0.0124245	4.00675e-06	0
    Cl(f):	0.000109891	0.000107148	2.74302e-06	0
    Cl(r):	0.0123186	0.0123173	1.26374e-06	0
    CmPitch:	-0.00610435	-0.00610509	7.39639e-07	0
    CmRoll:	-0.00621425	-0.00621224	-2.00338e-06	0
    CmYaw:	-0.0187947	-0.0239241	0.00512939	0
    Cs:	8.87366e-24	2.19212e-25	8.65445e-24	0
    Cs(f):	-0.0187947	-0.0239241	0.00512939	0
    Cs(r):	0.0187947	0.0239241	-0.00512939	0

    writing force and moment coefficient files.

Time = 23

smoothSolver:  Solving for Ux, Initial residual = 0.00190614, Final residual = 0.000106796, No Iterations 2
smoothSolver:  Solving for Uy, Initial residual = 0.00513708, Final residual = 0.000261936, No Iterations 2
GAMG:  Solving for p, Initial residual = 0.107838, Final residual = 0.00495436, No Iterations 12
GAMG:  Solving for p, Initial residual = 0.0430804, Final residual = 0.00214438, No Iterations 14
GAMG:  Solving for p, Initial residual = 0.0187929, Final residual = 0.000870488, No Iterations 19
GAMG:  Solving for p, Initial residual = 0.0166171, Final residual = 0.00077347, No Iterations 12
time step continuity errors : sum local = 4.02987e-05, global = -5.27557e-07, cumulative = 8.41822e-06
smoothSolver:  Solving for omega, Initial residual = 5.11582e-05, Final residual = 6.41502e-07, No Iterations 4
bounding omega, min: -4.72776 max: 60427.6 average: 145.117
smoothSolver:  Solving for k, Initial residual = 0.00189963, Final residual = 3.36569e-05, No Iterations 2
bounding k, min: -9.25965e-06 max: 0.191668 average: 0.000195646
ExecutionTime = 30.19 s  ClockTime = 31 s

forceCoeffs forceCoeffs1 write:
    Coefficient	Total	Pressure	Viscous	Internal
    Cd:	-0.00427167	-0.0142481	0.00997644	0
    Cd(f):	-0.0127224	-0.0177065	0.0049841	0
    Cd(r):	0.00845069	0.00345834	0.00499235	0
    Cl:	0.021173	0.0211648	8.25211e-06	0
    Cl(f):	0.00160478	0.00160094	3.84452e-06	0
    Cl(r):	0.0195683	0.0195639	4.4076e-06	0
    CmPitch:	-0.00898174	-0.00898146	-2.8154e-07	0
    CmRoll:	-0.0105865	-0.0105824	-4.12606e-06	0
    CmYaw:	-0.00213584	-0.00712406	0.00498822	0
    Cs:	6.8844e-24	5.01285e-24	1.87155e-24	0
    Cs(f):	-0.00213584	-0.00712406	0.00498822	0
    Cs(r):	0.00213584	0.00712406	-0.00498822	0

    writing force and moment coefficient files.

Time = 24

smoothSolver:  Solving for Ux, Initial residual = 0.00213568, Final residual = 0.000110658, No Iterations 2
smoothSolver:  Solving for Uy, Initial residual = 0.00617486, Final residual = 0.000295451, No Iterations 2
GAMG:  Solving for p, Initial residual = 0.0784356, Final residual = 0.00361208, No Iterations 10
GAMG:  Solving for p, Initial residual = 0.0422207, Final residual = 0.00192555, No Iterations 16
GAMG:  Solving for p, Initial residual = 0.0232031, Final residual = 0.00105438, No Iterations 17
GAMG:  Solving for p, Initial residual = 0.0205127, Final residual = 0.00100936, No Iterations 15
time step continuity errors : sum local = 3.83411e-05, global = -9.98199e-07, cumulative = 7.42003e-06
smoothSolver:  Solving for omega, Initial residual = 4.70986e-05, Final residual = 6.65038e-07, No Iterations 4
bounding omega, min: -1.46246 max: 60911.6 average: 147.981
smoothSolver:  Solving for k, Initial residual = 0.00130103, Final residual = 2.99894e-05, No Iterations 2
bounding k, min: -5.43772e-05 max: 0.228955 average: 0.000266687
ExecutionTime = 31.17 s  ClockTime = 32 s

forceCoeffs forceCoeffs1 write:
    Coefficient	Total	Pressure	Viscous	Internal
    Cd:	0.0198226	0.0100895	0.00973306	0
    Cd(f):	-0.00136173	-0.00622251	0.00486078	0
    Cd(r):	0.0211843	0.016312	0.00487228	0
    Cl:	0.022546	0.0225345	1.14959e-05	0
    Cl(f):	0.00246765	0.00246263	5.02249e-06	0
    Cl(r):	0.0200784	0.0200719	6.47341e-06	0
    CmPitch:	-0.00880536	-0.00880463	-7.25463e-07	0
    CmRoll:	-0.011273	-0.0112673	-5.74795e-06	0
    CmYaw:	0.00991128	0.00504475	0.00486653	0
    Cs:	1.2675e-24	4.25907e-24	-2.99157e-24	0
    Cs(f):	0.00991128	0.00504475	0.00486653	0
    Cs(r):	-0.00991128	-0.00504475	-0.00486653	0

    writing force and moment coefficient files.

Time = 25

smoothSolver:  Solving for Ux, Initial residual = 0.0022877, Final residual = 0.000112807, No Iterations 2
smoothSolver:  Solving for Uy, Initial residual = 0.00639394, Final residual = 0.000297128, No Iterations 2
GAMG:  Solving for p, Initial residual = 0.075542, Final residual = 0.00377447, No Iterations 10
GAMG:  Solving for p, Initial residual = 0.0551464, Final residual = 0.00244719, No Iterations 17
GAMG:  Solving for p, Initial residual = 0.0384441, Final residual = 0.0019002, No Iterations 16
GAMG:  Solving for p, Initial residual = 0.039484, Final residual = 0.00195585, No Iterations 16
time step continuity errors : sum local = 3.64553e-05, global = -1.09306e-06, cumulative = 6.32696e-06
smoothSolver:  Solving for omega, Initial residual = 4.34151e-05, Final residual = 5.84165e-07, No Iterations 4
bounding omega, min: -3.54466 max: 61274.2 average: 150.702
smoothSolver:  Solving for k, Initial residual = 0.000951175, Final residual = 2.73981e-05, No Iterations 2
bounding k, min: -5.8671e-05 max: 0.255585 average: 0.000339819
ExecutionTime = 32.23 s  ClockTime = 33 s

forceCoeffs forceCoeffs1 write:
    Coefficient	Total	Pressure	Viscous	Internal
    Cd:	0.0321819	0.0226538	0.00952807	0
    Cd(f):	0.00713843	0.00238133	0.0047571	0
    Cd(r):	0.0250435	0.0202725	0.00477097	0
    Cl:	0.017905	0.0178912	1.38742e-05	0
    Cl(f):	0.00272267	0.0027164	6.26899e-06	0
    Cl(r):	0.0151824	0.0151748	7.60517e-06	0
    CmPitch:	-0.00622985	-0.00622918	-6.68088e-07	0
    CmRoll:	-0.00895252	-0.00894558	-6.93708e-06	0
    CmYaw:	0.016091	0.0113269	0.00476404	0
    Cs:	-1.46054e-23	-4.35775e-24	-1.02477e-23	0
    Cs(f):	0.016091	0.0113269	0.00476404	0
    Cs(r):	-0.016091	-0.0113269	-0.00476404	0

    writing force and moment coefficient files.

Time = 26

smoothSolver:  Solving for Ux, Initial residual = 0.00202504, Final residual = 9.75615e-05, No Iterations 2
smoothSolver:  Solving for Uy, Initial residual = 0.00563668, Final residual = 0.00025654, No Iterations 2
GAMG:  Solving for p, Initial residual = 0.0817635, Final residual = 0.00405891, No Iterations 11
GAMG:  Solving for p, Initial residual = 0.0899555, Final residual = 0.00417386, No Iterations 18
GAMG:  Solving for p, Initial residual = 0.0891322, Final residual = 0.00408457, No Iterations 17
GAMG:  Solving for p, Initial residual = 0.0539626, Final residual = 0.00246722, No Iterations 17
time step continuity errors : sum local = 3.18924e-05, global = -7.63633e-07, cumulative = 5.56333e-06
smoothSolver:  Solving for omega, Initial residual = 4.12025e-05, Final residual = 5.73012e-07, No Iterations 4
bounding omega, min: -18.2516 max: 61579.6 average: 153.298
smoothSolver:  Solving for k, Initial residual = 0.000747683, Final residual = 2.67148e-05, No Iterations 2
bounding k, min: -3.77724e-05 max: 0.304037 average: 0.000413991
ExecutionTime = 33.2 s  ClockTime = 34 s

forceCoeffs forceCoeffs1 write:
    Coefficient	Total	Pressure	Viscous	Internal
    Cd:	0.0339313	0.0245764	0.00935488	0
    Cd(f):	0.0116419	0.0069711	0.00467081	0
    Cd(r):	0.0222894	0.0176053	0.00468407	0
    Cl:	0.0106475	0.0106342	1.32538e-05	0
    Cl(f):	0.00248952	0.00248339	6.12979e-06	0
    Cl(r):	0.00815797	0.00815084	7.12397e-06	0
    CmPitch:	-0.00283422	-0.00283372	-4.97091e-07	0
    CmRoll:	-0.00532374	-0.00531712	-6.62688e-06	0
    CmYaw:	0.0169657	0.0122882	0.00467744	0
    Cs:	-1.91902e-23	-1.71785e-23	-2.0117e-24	0
    Cs(f):	0.0169657	0.0122882	0.00467744	0
    Cs(r):	-0.0169657	-0.0122882	-0.00467744	0

    writing force and moment coefficient files.

Time = 27

smoothSolver:  Solving for Ux, Initial residual = 0.00155704, Final residual = 7.63477e-05, No Iterations 2
smoothSolver:  Solving for Uy, Initial residual = 0.00435462, Final residual = 0.000198222, No Iterations 2
GAMG:  Solving for p, Initial residual = 0.102997, Final residual = 0.00435859, No Iterations 12
GAMG:  Solving for p, Initial residual = 0.14698, Final residual = 0.00717309, No Iterations 17
GAMG:  Solving for p, Initial residual = 0.0630388, Final residual = 0.00302256, No Iterations 17
GAMG:  Solving for p, Initial residual = 0.0351285, Final residual = 0.00168528, No Iterations 16
time step continuity errors : sum local = 2.9583e-05, global = -4.47643e-07, cumulative = 5.11569e-06
smoothSolver:  Solving for omega, Initial residual = 4.05762e-05, Final residual = 5.48767e-07, No Iterations 4
bounding omega, min: -4.61365 max: 61770.3 average: 155.852
smoothSolver:  Solving for k, Initial residual = 0.000603639, Final residual = 2.50987e-05, No Iterations 2
bounding k, min: -0.000168883 max: 0.364331 average: 0.000490125
ExecutionTime = 34.37 s  ClockTime = 35 s

forceCoeffs forceCoeffs1 write:
    Coefficient	Total	Pressure	Viscous	Internal
    Cd:	0.0292222	0.0200162	0.00920599	0
    Cd(f):	0.0129533	0.00835547	0.00459783	0
    Cd(r):	0.0162689	0.0116607	0.00460815	0
    Cl:	0.00331559	0.00330526	1.03241e-05	0
    Cl(f):	0.00193554	0.00193058	4.96004e-06	0
    Cl(r):	0.00138005	0.00137469	5.36409e-06	0
    CmPitch:	0.000277742	0.000277944	-2.02026e-07	0
    CmRoll:	-0.00165779	-0.00165263	-5.16207e-06	0
    CmYaw:	0.0146111	0.0100081	0.00460299	0
    Cs:	-2.88885e-23	-2.83111e-23	-5.77415e-25	0
    Cs(f):	0.0146111	0.0100081	0.00460299	0
    Cs(r):	-0.0146111	-0.0100081	-0.00460299	0

    writing force and moment coefficient files.

Time = 28

smoothSolver:  Solving for Ux, Initial residual = 0.00113116, Final residual = 5.78349e-05, No Iterations 2
smoothSolver:  Solving for Uy, Initial residual = 0.0031936, Final residual = 0.000150154, No Iterations 2
GAMG:  Solving for p, Initial residual = 0.148989, Final residual = 0.00591548, No Iterations 12
GAMG:  Solving for p, Initial residual = 0.151714, Final residual = 0.00747217, No Iterations 15
GAMG:  Solving for p, Initial residual = 0.0566772, Final residual = 0.00278242, No Iterations 16
GAMG:  Solving for p, Initial residual = 0.0369822, Final residual = 0.00178178, No Iterations 14
time step continuity errors : sum local = 2.49752e-05, global = -1.63249e-07, cumulative = 4.95244e-06
smoothSolver:  Solving for omega, Initial residual = 4.30021e-05, Final residual = 5.54536e-07, No Iterations 4
bounding omega, min: -4.2136 max: 61865.6 average: 158.615
smoothSolver:  Solving for k, Initial residual = 0.000532812, Final residual = 2.48867e-05, No Iterations 2
bounding k, min: -5.37755e-05 max: 0.425963 average: 0.000569281
ExecutionTime = 35.34 s  ClockTime = 36 s

forceCoeffs forceCoeffs1 write:
    Coefficient	Total	Pressure	Viscous	Internal
    Cd:	0.0220717	0.0129978	0.00907394	0
    Cd(f):	0.0122163	0.00768166	0.00453461	0
    Cd(r):	0.00985548	0.00531614	0.00453934	0
    Cl:	-0.00236079	-0.00236552	4.7286e-06	0
    Cl(f):	0.00122879	0.00122621	2.5748e-06	0
    Cl(r):	-0.00358958	-0.00359173	2.1538e-06	0
    CmPitch:	0.00240918	0.00240897	2.10497e-07	0
    CmRoll:	0.00118039	0.00118276	-2.3643e-06	0
    CmYaw:	0.0110359	0.0064989	0.00453697	0
    Cs:	-3.87473e-23	-3.65829e-23	-2.16446e-24	0
    Cs(f):	0.0110359	0.0064989	0.00453697	0
    Cs(r):	-0.0110359	-0.0064989	-0.00453697	0

    writing force and moment coefficient files.

Time = 29

smoothSolver:  Solving for Ux, Initial residual = 0.000994215, Final residual = 5.22527e-05, No Iterations 2
smoothSolver:  Solving for Uy, Initial residual = 0.00316531, Final residual = 0.000150902, No Iterations 2
GAMG:  Solving for p, Initial residual = 0.208574, Final residual = 0.00964813, No Iterations 8
GAMG:  Solving for p, Initial residual = 0.10022, Final residual = 0.00469795, No Iterations 14
GAMG:  Solving for p, Initial residual = 0.0842481, Final residual = 0.00394308, No Iterations 16
GAMG:  Solving for p, Initial residual = 0.0615667, Final residual = 0.00300881, No Iterations 12
time step continuity errors : sum local = 2.1105e-05, global = 2.21029e-07, cumulative = 5.17347e-06
smoothSolver:  Solving for omega, Initial residual = 5.05433e-05, Final residual = 4.8181e-06, No Iterations 2
bounding omega, min: -2.40708 max: 61894 average: 161.666
smoothSolver:  Solving for k, Initial residual = 0.000498589, Final residual = 2.53764e-05, No Iterations 2
bounding k, min: -0.000110851 max: 0.487359 average: 0.000652602
ExecutionTime = 36.18 s  ClockTime = 37 s

forceCoeffs forceCoeffs1 write:
    Coefficient	Total	Pressure	Viscous	Internal
    Cd:	0.0152775	0.00632645	0.00895104	0
    Cd(f):	0.010447	0.00597146	0.00447553	0
    Cd(r):	0.0048305	0.000354992	0.00447551	0
    Cl:	-0.00561649	-0.00561647	-2.59508e-08	0
    Cl(f):	0.000479641	0.000479187	4.53788e-07	0
    Cl(r):	-0.00609613	-0.00609565	-4.79739e-07	0
    CmPitch:	0.00328789	0.00328742	4.66763e-07	0
    CmRoll:	0.00280825	0.00280823	1.29754e-08	0
    CmYaw:	0.00763875	0.00316322	0.00447552	0
    Cs:	-4.08636e-23	-4.06615e-23	-2.02097e-25	0
    Cs(f):	0.00763875	0.00316322	0.00447552	0
    Cs(r):	-0.00763875	-0.00316322	-0.00447552	0

    writing force and moment coefficient files.

Time = 30

smoothSolver:  Solving for Ux, Initial residual = 0.00104251, Final residual = 5.30727e-05, No Iterations 2
smoothSolver:  Solving for Uy, Initial residual = 0.00342798, Final residual = 0.000161042, No Iterations 2
GAMG:  Solving for p, Initial residual = 0.241606, Final residual = 0.0109304, No Iterations 8
GAMG:  Solving for p, Initial residual = 0.0678608, Final residual = 0.00308716, No Iterations 14
GAMG:  Solving for p, Initial residual = 0.0429907, Final residual = 0.00206749, No Iterations 14
GAMG:  Solving for p, Initial residual = 0.0313442, Final residual = 0.00153685, No Iterations 12
time step continuity errors : sum local = 1.88859e-05, global = 5.93243e-07, cumulative = 5.76671e-06
smoothSolver:  Solving for omega, Initial residual = 4.93082e-05, Final residual = 4.85932e-06, No Iterations 2
bounding omega, min: -2.09619 max: 61866.6 average: 164.591
smoothSolver:  Solving for k, Initial residual = 0.000484277, Final residual = 2.72068e-05, No Iterations 2
bounding k, min: -0.000609712 max: 0.547026 average: 0.000741021
ExecutionTime = 37.84 s  ClockTime = 39 s

forceCoeffs forceCoeffs1 write:
    Coefficient	Total	Pressure	Viscous	Internal
    Cd:	0.0104296	0.00159075	0.00883887	0
    Cd(f):	0.00816549	0.00374472	0.00442077	0
    Cd(r):	0.00226413	-0.00215398	0.0044181	0
    Cl:	-0.00590136	-0.0058987	-2.66319e-06	0
    Cl(f):	-0.000115601	-0.000114806	-7.946e-07	0
    Cl(r):	-0.00578576	-0.0057839	-1.86858e-06	0
    CmPitch:	0.00283508	0.00283454	5.36992e-07	0
    CmRoll:	0.00295068	0.00294935	1.33159e-06	0
    CmYaw:	0.00521481	0.000795373	0.00441944	0
    Cs:	-4.06383e-23	-4.13785e-23	7.40165e-25	0
    Cs(f):	0.00521481	0.000795373	0.00441944	0
    Cs(r):	-0.00521481	-0.000795373	-0.00441944	0

    writing force and moment coefficient files.

Time = 31

smoothSolver:  Solving for Ux, Initial residual = 0.00101035, Final residual = 5.01162e-05, No Iterations 2
smoothSolver:  Solving for Uy, Initial residual = 0.00339087, Final residual = 0.000157002, No Iterations 2
GAMG:  Solving for p, Initial residual = 0.192629, Final residual = 0.00788437, No Iterations 10
GAMG:  Solving for p, Initial residual = 0.0439973, Final residual = 0.00215647, No Iterations 16
GAMG:  Solving for p, Initial residual = 0.0262064, Final residual = 0.00118486, No Iterations 15
GAMG:  Solving for p, Initial residual = 0.0173368, Final residual = 0.000839671, No Iterations 15
time step continuity errors : sum local = 1.74222e-05, global = 6.02952e-07, cumulative = 6.36966e-06
smoothSolver:  Solving for omega, Initial residual = 4.40775e-05, Final residual = 5.13487e-07, No Iterations 4
bounding omega, min: -10.4059 max: 61826.2 average: 167.196
smoothSolver:  Solving for k, Initial residual = 0.00045956, Final residual = 2.80475e-05, No Iterations 2
bounding k, min: -0.000214049 max: 0.603086 average: 0.000836434
ExecutionTime = 38.83 s  ClockTime = 40 s

forceCoeffs forceCoeffs1 write:
    Coefficient	Total	Pressure	Viscous	Internal
    Cd:	0.00832593	-0.000406852	0.00873278	0
    Cd(f):	0.00620927	0.00184048	0.00436879	0
    Cd(r):	0.00211666	-0.00224733	0.00436399	0
    Cl:	-0.00409261	-0.00408781	-4.8053e-06	0
    Cl(f):	-0.000492312	-0.000490252	-2.06032e-06	0
    Cl(r):	-0.0036003	-0.00359756	-2.74498e-06	0
    CmPitch:	0.00155399	0.00155365	3.42328e-07	0
    CmRoll:	0.00204631	0.0020439	2.40265e-06	0
    CmYaw:	0.00416296	-0.000203426	0.00436639	0
    Cs:	-3.62254e-23	-3.94207e-23	3.19529e-24	0
    Cs(f):	0.00416296	-0.000203426	0.00436639	0
    Cs(r):	-0.00416296	0.000203426	-0.00436639	0

    writing force and moment coefficient files.

Time = 32

smoothSolver:  Solving for Ux, Initial residual = 0.000867931, Final residual = 4.2709e-05, No Iterations 2
smoothSolver:  Solving for Uy, Initial residual = 0.00307574, Final residual = 0.000140377, No Iterations 2
GAMG:  Solving for p, Initial residual = 0.125048, Final residual = 0.00594078, No Iterations 10
GAMG:  Solving for p, Initial residual = 0.0323115, Final residual = 0.00148539, No Iterations 18
GAMG:  Solving for p, Initial residual = 0.019069, Final residual = 0.000932391, No Iterations 15
GAMG:  Solving for p, Initial residual = 0.0122315, Final residual = 0.000554119, No Iterations 17
time step continuity errors : sum local = 1.49814e-05, global = 4.86788e-07, cumulative = 6.85645e-06
smoothSolver:  Solving for omega, Initial residual = 4.12346e-05, Final residual = 5.21288e-07, No Iterations 4
bounding omega, min: -0.734082 max: 61788.5 average: 169.507
smoothSolver:  Solving for k, Initial residual = 0.000442659, Final residual = 2.86532e-05, No Iterations 2
bounding k, min: -3.40714e-05 max: 0.654267 average: 0.000941398
ExecutionTime = 39.98 s  ClockTime = 41 s

forceCoeffs forceCoeffs1 write:
    Coefficient	Total	Pressure	Viscous	Internal
    Cd:	0.00832028	-0.000315118	0.0086354	0
    Cd(f):	0.00485593	0.000535433	0.0043205	0
    Cd(r):	0.00346435	-0.000850551	0.0043149	0
    Cl:	-0.00139158	-0.00138598	-5.59899e-06	0
    Cl(f):	-0.000654554	-0.000651971	-2.58302e-06	0
    Cl(r):	-0.000737029	-0.000734013	-3.01597e-06	0
    CmPitch:	4.12377e-05	4.10212e-05	2.16479e-07	0
    CmRoll:	0.000695792	0.000692992	2.79949e-06	0
    CmYaw:	0.00416014	-0.000157559	0.0043177	0
    Cs:	-3.01916e-23	-3.39366e-23	3.74494e-24	0
    Cs(f):	0.00416014	-0.000157559	0.0043177	0
    Cs(r):	-0.00416014	0.000157559	-0.0043177	0

    writing force and moment coefficient files.

Time = 33

smoothSolver:  Solving for Ux, Initial residual = 0.000696974, Final residual = 3.50163e-05, No Iterations 2
smoothSolver:  Solving for Uy, Initial residual = 0.00273011, Final residual = 0.000123268, No Iterations 2
GAMG:  Solving for p, Initial residual = 0.0851267, Final residual = 0.00414023, No Iterations 10
GAMG:  Solving for p, Initial residual = 0.0264628, Final residual = 0.00122251, No Iterations 18
GAMG:  Solving for p, Initial residual = 0.0160508, Final residual = 0.000794737, No Iterations 15
GAMG:  Solving for p, Initial residual = 0.010523, Final residual = 0.000481426, No Iterations 17
time step continuity errors : sum local = 1.36713e-05, global = 3.25297e-07, cumulative = 7.18175e-06
smoothSolver:  Solving for omega, Initial residual = 3.90899e-05, Final residual = 4.39306e-07, No Iterations 4
bounding omega, min: -1.93587 max: 61761.8 average: 171.669
smoothSolver:  Solving for k, Initial residual = 0.000436077, Final residual = 2.96123e-05, No Iterations 2
bounding k, min: -2.2619e-05 max: 0.698176 average: 0.00105775
ExecutionTime = 41.14 s  ClockTime = 42 s

forceCoeffs forceCoeffs1 write:
    Coefficient	Total	Pressure	Viscous	Internal
    Cd:	0.00928007	0.000732097	0.00854798	0
    Cd(f):	0.00414036	-0.000135924	0.00427628	0
    Cd(r):	0.00513971	0.000868021	0.00427169	0
    Cl:	0.000999353	0.00100394	-4.59146e-06	0
    Cl(f):	-0.000611367	-0.000608931	-2.4354e-06	0
    Cl(r):	0.00161072	0.00161288	-2.15606e-06	0
    CmPitch:	-0.00111104	-0.0011109	-1.39673e-07	0
    CmRoll:	-0.000499677	-0.000501972	2.29573e-06	0
    CmYaw:	0.00464004	0.000366049	0.00427399	0
    Cs:	-2.09751e-23	-2.85347e-23	7.5596e-24	0
    Cs(f):	0.00464004	0.000366049	0.00427399	0
    Cs(r):	-0.00464004	-0.000366049	-0.00427399	0

    writing force and moment coefficient files.

Time = 34

smoothSolver:  Solving for Ux, Initial residual = 0.000602236, Final residual = 3.08959e-05, No Iterations 2
smoothSolver:  Solving for Uy, Initial residual = 0.00251514, Final residual = 0.000113266, No Iterations 2
GAMG:  Solving for p, Initial residual = 0.0622124, Final residual = 0.0026854, No Iterations 10
GAMG:  Solving for p, Initial residual = 0.0217503, Final residual = 0.00107344, No Iterations 16
GAMG:  Solving for p, Initial residual = 0.0140917, Final residual = 0.000666136, No Iterations 14
GAMG:  Solving for p, Initial residual = 0.00945789, Final residual = 0.000431687, No Iterations 16
time step continuity errors : sum local = 1.17475e-05, global = 1.68086e-07, cumulative = 7.34983e-06
smoothSolver:  Solving for omega, Initial residual = 3.81268e-05, Final residual = 4.92329e-07, No Iterations 4
bounding omega, min: -0.627559 max: 61748.5 average: 173.793
smoothSolver:  Solving for k, Initial residual = 0.000432165, Final residual = 3.03024e-05, No Iterations 2
bounding k, min: -5.01882e-05 max: 0.73292 average: 0.00118783
ExecutionTime = 42.23 s  ClockTime = 43 s

forceCoeffs forceCoeffs1 write:
    Coefficient	Total	Pressure	Viscous	Internal
    Cd:	0.0102913	0.00181963	0.00847171	0
    Cd(f):	0.00397322	-0.000264097	0.00423732	0
    Cd(r):	0.00631812	0.00208372	0.0042344	0
    Cl:	0.0023449	0.00234782	-2.92178e-06	0
    Cl(f):	-0.000469498	-0.000467437	-2.06104e-06	0
    Cl(r):	0.0028144	0.00281526	-8.60739e-07	0
    CmPitch:	-0.00164195	-0.00164135	-6.00149e-07	0
    CmRoll:	-0.00117245	-0.00117391	1.46089e-06	0
    CmYaw:	0.00514567	0.000909813	0.00423586	0
    Cs:	-1.74502e-23	-2.35949e-23	6.14474e-24	0
    Cs(f):	0.00514567	0.000909813	0.00423586	0
    Cs(r):	-0.00514567	-0.000909813	-0.00423586	0

    writing force and moment coefficient files.

Time = 35

smoothSolver:  Solving for Ux, Initial residual = 0.000580913, Final residual = 2.9307e-05, No Iterations 2
smoothSolver:  Solving for Uy, Initial residual = 0.00246783, Final residual = 0.000109608, No Iterations 2
GAMG:  Solving for p, Initial residual = 0.0527704, Final residual = 0.00216502, No Iterations 8
GAMG:  Solving for p, Initial residual = 0.0193753, Final residual = 0.000935241, No Iterations 14
GAMG:  Solving for p, Initial residual = 0.0131359, Final residual = 0.000615368, No Iterations 12
GAMG:  Solving for p, Initial residual = 0.00929654, Final residual = 0.000442713, No Iterations 14
time step continuity errors : sum local = 1.03615e-05, global = -8.62961e-08, cumulative = 7.26354e-06
smoothSolver:  Solving for omega, Initial residual = 3.77315e-05, Final residual = 4.47021e-07, No Iterations 4
bounding omega, min: -1.2966 max: 61754.2 average: 175.844
smoothSolver:  Solving for k, Initial residual = 0.00044541, Final residual = 3.20527e-05, No Iterations 2
bounding k, min: -7.08122e-05 max: 0.757275 average: 0.00133637
ExecutionTime = 43.19 s  ClockTime = 44 s

forceCoeffs forceCoeffs1 write:
    Coefficient	Total	Pressure	Viscous	Internal
    Cd:	0.0109209	0.00251401	0.00840692	0
    Cd(f):	0.00410339	-0.000100848	0.00420424	0
    Cd(r):	0.00681753	0.00261485	0.00420268	0
    Cl:	0.00271414	0.0027157	-1.56186e-06	0
    Cl(f):	-0.000279854	-0.000278255	-1.59961e-06	0
    Cl(r):	0.002994	0.00299396	3.7749e-08	0
    CmPitch:	-0.00163692	-0.00163611	-8.1868e-07	0
    CmRoll:	-0.00135707	-0.00135785	7.80931e-07	0
    CmYaw:	0.00546046	0.001257	0.00420346	0
    Cs:	-1.68558e-23	-1.98467e-23	2.99097e-24	0
    Cs(f):	0.00546046	0.001257	0.00420346	0
    Cs(r):	-0.00546046	-0.001257	-0.00420346	0

    writing force and moment coefficient files.

Time = 36

smoothSolver:  Solving for Ux, Initial residual = 0.000581662, Final residual = 2.88142e-05, No Iterations 2
smoothSolver:  Solving for Uy, Initial residual = 0.00245013, Final residual = 0.000108566, No Iterations 2
GAMG:  Solving for p, Initial residual = 0.0463939, Final residual = 0.0021364, No Iterations 6
GAMG:  Solving for p, Initial residual = 0.0176879, Final residual = 0.00085328, No Iterations 13
GAMG:  Solving for p, Initial residual = 0.0122043, Final residual = 0.000600586, No Iterations 11
GAMG:  Solving for p, Initial residual = 0.00918601, Final residual = 0.000445242, No Iterations 13
time step continuity errors : sum local = 9.10056e-06, global = -3.18981e-07, cumulative = 6.94455e-06
smoothSolver:  Solving for omega, Initial residual = 3.83473e-05, Final residual = 4.79829e-07, No Iterations 4
bounding omega, min: -8.20047 max: 61776.4 average: 177.915
smoothSolver:  Solving for k, Initial residual = 0.000446507, Final residual = 3.28338e-05, No Iterations 2
bounding k, min: -7.56228e-05 max: 0.770792 average: 0.0015063
ExecutionTime = 44.12 s  ClockTime = 45 s

forceCoeffs forceCoeffs1 write:
    Coefficient	Total	Pressure	Viscous	Internal
    Cd:	0.0112053	0.00284933	0.00835592	0
    Cd(f):	0.00450592	0.000327531	0.00417839	0
    Cd(r):	0.00669934	0.0025218	0.00417754	0
    Cl:	0.00219342	0.00219427	-8.49995e-07	0
    Cl(f):	-0.00010469	-0.000103392	-1.2987e-06	0
    Cl(r):	0.00229811	0.00229766	4.48703e-07	0
    CmPitch:	-0.0012014	-0.00120053	-8.73701e-07	0
    CmRoll:	-0.00109671	-0.00109713	4.24997e-07	0
    CmYaw:	0.00560263	0.00142467	0.00417796	0
    Cs:	-9.83024e-24	-1.73553e-23	7.52506e-24	0
    Cs(f):	0.00560263	0.00142467	0.00417796	0
    Cs(r):	-0.00560263	-0.00142467	-0.00417796	0

    writing force and moment coefficient files.

Time = 37

smoothSolver:  Solving for Ux, Initial residual = 0.000566511, Final residual = 2.77702e-05, No Iterations 2
smoothSolver:  Solving for Uy, Initial residual = 0.00237878, Final residual = 0.000105738, No Iterations 2
GAMG:  Solving for p, Initial residual = 0.043841, Final residual = 0.00209069, No Iterations 6
GAMG:  Solving for p, Initial residual = 0.0184902, Final residual = 0.000827926, No Iterations 16
GAMG:  Solving for p, Initial residual = 0.0129287, Final residual = 0.00063091, No Iterations 13
GAMG:  Solving for p, Initial residual = 0.010501, Final residual = 0.000486927, No Iterations 14
time step continuity errors : sum local = 8.15357e-06, global = -3.38289e-07, cumulative = 6.60627e-06
smoothSolver:  Solving for omega, Initial residual = 3.89481e-05, Final residual = 4.5729e-07, No Iterations 4
bounding omega, min: -0.0486893 max: 61823.4 average: 179.986
smoothSolver:  Solving for k, Initial residual = 0.000414031, Final residual = 3.09462e-05, No Iterations 2
bounding k, min: -0.00073582 max: 0.774787 average: 0.00169077
ExecutionTime = 44.97 s  ClockTime = 46 s

forceCoeffs forceCoeffs1 write:
    Coefficient	Total	Pressure	Viscous	Internal
    Cd:	0.0110071	0.00269037	0.00831677	0
    Cd(f):	0.00491166	0.000752704	0.00415895	0
    Cd(r):	0.00609548	0.00193767	0.00415782	0
    Cl:	0.00118383	0.00118496	-1.13476e-06	0
    Cl(f):	1.67708e-05	1.7978e-05	-1.20717e-06	0
    Cl(r):	0.00116706	0.00116698	7.24107e-08	0
    CmPitch:	-0.000575143	-0.000574503	-6.39792e-07	0
    CmRoll:	-0.000591914	-0.000592481	5.67381e-07	0
    CmYaw:	0.00550357	0.00134518	0.00415838	0
    Cs:	-1.36944e-23	-1.62604e-23	2.56608e-24	0
    Cs(f):	0.00550357	0.00134518	0.00415838	0
    Cs(r):	-0.00550357	-0.00134518	-0.00415838	0

    writing force and moment coefficient files.

Time = 38

smoothSolver:  Solving for Ux, Initial residual = 0.000531059, Final residual = 2.61461e-05, No Iterations 2
smoothSolver:  Solving for Uy, Initial residual = 0.0022635, Final residual = 0.000101239, No Iterations 2
GAMG:  Solving for p, Initial residual = 0.0425629, Final residual = 0.00177238, No Iterations 8
GAMG:  Solving for p, Initial residual = 0.0191151, Final residual = 0.000877248, No Iterations 17
GAMG:  Solving for p, Initial residual = 0.014163, Final residual = 0.000687002, No Iterations 14
GAMG:  Solving for p, Initial residual = 0.0115013, Final residual = 0.000566686, No Iterations 15
time step continuity errors : sum local = 8.29738e-06, global = -2.91884e-07, cumulative = 6.31438e-06
smoothSolver:  Solving for omega, Initial residual = 3.92277e-05, Final residual = 4.75018e-07, No Iterations 4
bounding omega, min: -1.59029 max: 61900.5 average: 182.032
smoothSolver:  Solving for k, Initial residual = 0.000372291, Final residual = 2.84975e-05, No Iterations 2
bounding k, min: -0.000934477 max: 0.77195 average: 0.00188013
ExecutionTime = 45.87 s  ClockTime = 47 s

forceCoeffs forceCoeffs1 write:
    Coefficient	Total	Pressure	Viscous	Internal
    Cd:	0.0105545	0.00226814	0.00828634	0
    Cd(f):	0.00513391	0.000990012	0.0041439	0
    Cd(r):	0.00542057	0.00127813	0.00414244	0
    Cl:	0.000286664	0.000288118	-1.45478e-06	0
    Cl(f):	0.000107685	0.000108958	-1.27271e-06	0
    Cl(r):	0.000178978	0.00017916	-1.82074e-07	0
    CmPitch:	-3.56464e-05	-3.51011e-05	-5.45318e-07	0
    CmRoll:	-0.000143332	-0.000144059	7.27391e-07	0
    CmYaw:	0.00527724	0.00113407	0.00414317	0
    Cs:	-1.42377e-23	-1.7004e-23	2.76628e-24	0
    Cs(f):	0.00527724	0.00113407	0.00414317	0
    Cs(r):	-0.00527724	-0.00113407	-0.00414317	0

    writing force and moment coefficient files.

Time = 39

smoothSolver:  Solving for Ux, Initial residual = 0.000491443, Final residual = 2.46372e-05, No Iterations 2
smoothSolver:  Solving for Uy, Initial residual = 0.00216715, Final residual = 9.78456e-05, No Iterations 2
GAMG:  Solving for p, Initial residual = 0.0425212, Final residual = 0.0020866, No Iterations 8
GAMG:  Solving for p, Initial residual = 0.0186465, Final residual = 0.000896752, No Iterations 17
GAMG:  Solving for p, Initial residual = 0.0142066, Final residual = 0.000699285, No Iterations 14
GAMG:  Solving for p, Initial residual = 0.0110522, Final residual = 0.000515879, No Iterations 16
time step continuity errors : sum local = 7.29336e-06, global = -2.30958e-07, cumulative = 6.08342e-06
smoothSolver:  Solving for omega, Initial residual = 3.91695e-05, Final residual = 4.74899e-07, No Iterations 4
bounding omega, min: -5.48534 max: 62003.8 average: 184.015
smoothSolver:  Solving for k, Initial residual = 0.000342716, Final residual = 2.61672e-05, No Iterations 2
bounding k, min: -0.000273949 max: 0.767213 average: 0.00207075
ExecutionTime = 46.79 s  ClockTime = 48 s

forceCoeffs forceCoeffs1 write:
    Coefficient	Total	Pressure	Viscous	Internal
    Cd:	0.0101885	0.00192514	0.00826335	0
    Cd(f):	0.00524595	0.00111306	0.0041329	0
    Cd(r):	0.00494254	0.000812085	0.00413046	0
    Cl:	-0.000303413	-0.000300972	-2.44085e-06	0
    Cl(f):	0.000156474	0.000158078	-1.60375e-06	0
    Cl(r):	-0.000459887	-0.00045905	-8.37099e-07	0
    CmPitch:	0.00030818	0.000308564	-3.83326e-07	0
    CmRoll:	0.000151706	0.000150486	1.22042e-06	0
    CmYaw:	0.00509425	0.000962571	0.00413168	0
    Cs:	-1.5705e-23	-1.87678e-23	3.06282e-24	0
    Cs(f):	0.00509425	0.000962571	0.00413168	0
    Cs(r):	-0.00509425	-0.000962571	-0.00413168	0

    writing force and moment coefficient files.

Time = 40

