/*---------------------------------------------------------------------------*\
| =========                 |                                                 |
| \\      /  F ield         | OpenFOAM: The Open Source CFD Toolbox           |
|  \\    /   O peration     | Version:  2212                                  |
|   \\  /    A nd           | Website:  www.openfoam.com                      |
|    \\/     M anipulation  |                                                 |
\*---------------------------------------------------------------------------*/
Build  : _70874860-20230612 OPENFOAM=2212 patch=230612 version=2212
Arch   : "LSB;label=32;scalar=64"
Exec   : checkMesh
Date   : Nov 27 2023
Time   : 18:48:39
Host   : maciek-gv62-7rc
PID    : 106780
I/O    : uncollated
Case   : /home/maciek/repository/airSupport/run/NACA4413__AoA0_kOmegaSST
nProcs : 1
trapFpe: Floating point exception trapping enabled (FOAM_SIGFPE).
fileModificationChecking : Monitoring run-time modified files using timeStampMaster (fileModificationSkew 5, maxFileModificationPolls 20)
allowSystemOperations : Allowing user-supplied system call operations

// * * * * * * * * * * * * * * * * * * * * * * * * * * * * * * * * * * * * * //
Create time

Create mesh for time = 0

Time = 0

Mesh stats 
    points:           332420
    internal points:  0
    faces:            661210
    internal faces:   328790
    cells:            165000
    faces per cell:   6
    boundary patches: 4
    point zones:      0
    face zones:       0
    cell zones:       0

Overall number of cells of each type:
    hexahedra:     165000
    prisms:        0
    wedges:        0
    pyramids:      0
    tet wedges:    0
    tetrahedra:    0
    polyhedra:     0

Checking topology...
    Boundary definition OK.
    Cell to face addressing OK.
    Point usage OK.
    Upper triangular ordering OK.
    Face vertices OK.
    Number of regions: 1 (OK).

Checking patch topology for multiply connected surfaces...
    Patch               Faces    Points   Surface topology
    inlet               1600     3202     ok (non-closed singly connected)  
    outlet              210      422      ok (non-closed singly connected)  
    foil                610      1220     ok (non-closed singly connected)  
    frontAndBack        330000   332420   ok (non-closed singly connected)  

Checking faceZone topology for multiply connected surfaces...
    No faceZones found.

Checking basic cellZone addressing...
    No cellZones found.

Checking basic pointZone addressing...
    No pointZones found.

Checking geometry...
    Overall domain bounding box (-10 -10.0247 0) (15 10.0247 1)
    Mesh has 2 geometric (non-empty/wedge) directions (1 1 0)
    Mesh has 2 solution (non-empty) directions (1 1 0)
    All edges aligned with or perpendicular to non-empty directions.
    Boundary openness (3.39648e-18 3.29695e-18 8.46057e-18) OK.
    Max cell openness = 6.38193e-16 OK.
    Max aspect ratio = 297.436 OK.
    Minimum face area = 8.18792e-07. Maximum face area = 0.688249.  Face area magnitudes OK.
    Min volume = 8.18792e-07. Max volume = 0.0547694.  Total volume = 455.06.  Cell volumes OK.
    Mesh non-orthogonality Max: 69.0412 average: 19.5416
    Non-orthogonality check OK.
    Face pyramids OK.
    Max skewness = 0.230748 OK.
    Coupled point location match (average 0) OK.

Mesh OK.

End

