/*---------------------------------------------------------------------------*\
| =========                 |                                                 |
| \\      /  F ield         | OpenFOAM: The Open Source CFD Toolbox           |
|  \\    /   O peration     | Version:  2212                                  |
|   \\  /    A nd           | Website:  www.openfoam.com                      |
|    \\/     M anipulation  |                                                 |
\*---------------------------------------------------------------------------*/
Build  : _70874860-20230612 OPENFOAM=2212 patch=230612 version=2212
Arch   : "LSB;label=32;scalar=64"
Exec   : renumberMesh -overwrite
Date   : Nov 27 2023
Time   : 18:48:36
Host   : maciek-gv62-7rc
PID    : 106779
I/O    : uncollated
Case   : /home/maciek/repository/airSupport/run/NACA4413__AoA0_kOmegaSST
nProcs : 1
trapFpe: Floating point exception trapping enabled (FOAM_SIGFPE).
fileModificationChecking : Monitoring run-time modified files using timeStampMaster (fileModificationSkew 5, maxFileModificationPolls 20)
allowSystemOperations : Allowing user-supplied system call operations

// * * * * * * * * * * * * * * * * * * * * * * * * * * * * * * * * * * * * * //
Create time

Create mesh for time = 0

Mesh region0 size: 165000
Before renumbering :
    band           : 164700
    profile        : 1.44963e+08

Using default renumberMethod.

Selecting renumberMethod CuthillMcKee

Reading volScalarField: k nut omega p
Reading volVectorField: U

After renumbering :
    band           : 210
    profile        : 3.25072e+07

Writing mesh to "constant"
End

