/*---------------------------------------------------------------------------*\
| =========                 |                                                 |
| \\      /  F ield         | OpenFOAM: The Open Source CFD Toolbox           |
|  \\    /   O peration     | Version:  2212                                  |
|   \\  /    A nd           | Website:  www.openfoam.com                      |
|    \\/     M anipulation  |                                                 |
\*---------------------------------------------------------------------------*/
Build  : _70874860-20230612 OPENFOAM=2212 patch=230612 version=2212
Arch   : "LSB;label=32;scalar=64"
Exec   : simpleFoam
Date   : Nov 27 2023
Time   : 18:48:41
Host   : maciek-gv62-7rc
PID    : 107033
I/O    : uncollated
Case   : /home/maciek/repository/airSupport/run/NACA4413__AoA0_kOmegaSST
nProcs : 1
trapFpe: Floating point exception trapping enabled (FOAM_SIGFPE).
fileModificationChecking : Monitoring run-time modified files using timeStampMaster (fileModificationSkew 5, maxFileModificationPolls 20)
allowSystemOperations : Allowing user-supplied system call operations

// * * * * * * * * * * * * * * * * * * * * * * * * * * * * * * * * * * * * * //
Create time

Create mesh for time = 0


SIMPLE: convergence criteria
    field U	 tolerance 0.0001
    field p	 tolerance 0.001
    field "(k|epsilon|omega)"	 tolerance 0.001

Reading field p

Reading field U

Reading/calculating face flux field phi

Selecting incompressible transport model Newtonian
Selecting turbulence model type RAS
Selecting RAS turbulence model kOmegaSST
Selecting patchDistMethod Poisson
smoothSolver:  Solving for yPsi, Initial residual = 1, Final residual = 0.999556, No Iterations 1000
bounding k, min: 0 max: 0 average: 0
RAS
{
    RASModel        kOmegaSST;
    turbulence      on;
    printCoeffs     on;
    alphaK1         0.85;
    alphaK2         1;
    alphaOmega1     0.5;
    alphaOmega2     0.856;
    gamma1          0.555556;
    gamma2          0.44;
    beta1           0.075;
    beta2           0.0828;
    betaStar        0.09;
    a1              0.31;
    b1              1;
    c1              10;
    F3              false;
    decayControl    false;
    kInf            0;
    omegaInf        0;
}

No MRF models present

No finite volume options present

Starting time loop

forceCoeffs forceCoeffs1:
    rho: rhoInf
    Freestream density (rhoInf) set to 1
    Not including porosity effects
    magUInf: 10
    lRef   : 1
    Aref   : 1
    rhoInf : 1
    Selecting all coefficients
    - Drag force: Cd
    - Drag force front: Cd(f)
    - Drag force rear: Cd(r)
    - Lift force: Cl
    - Lift force front: Cl(f)
    - Lift force rear: Cl(r)
    - Pitch moment: CmPitch
    - Roll moment: CmRoll
    - Yaw moment: CmYaw
    - Side force: Cs
    - Side force front: Cs(f)
    - Side force rear: Cs(r)


Time = 1

smoothSolver:  Solving for Ux, Initial residual = 1, Final residual = 0.0502603, No Iterations 2
smoothSolver:  Solving for Uy, Initial residual = 1, Final residual = 0.0537773, No Iterations 2
GAMG:  Solving for p, Initial residual = 1, Final residual = 0.0411362, No Iterations 26
GAMG:  Solving for p, Initial residual = 0.021374, Final residual = 0.00095509, No Iterations 17
GAMG:  Solving for p, Initial residual = 0.00488306, Final residual = 0.000203659, No Iterations 19
GAMG:  Solving for p, Initial residual = 0.00494176, Final residual = 0.000229982, No Iterations 16
time step continuity errors : sum local = 0.000355301, global = 8.35362e-07, cumulative = 8.35362e-07
smoothSolver:  Solving for omega, Initial residual = 3.50477e-05, Final residual = 1.5495e-06, No Iterations 4
bounding omega, min: -133.363 max: 54491.2 average: 79.6994
smoothSolver:  Solving for k, Initial residual = 1, Final residual = 0.0293338, No Iterations 4
bounding k, min: 0 max: 5.50639e-15 average: 1.00816e-15
ExecutionTime = 4.25 s  ClockTime = 4 s

forceCoeffs forceCoeffs1 write:
    Coefficient	Total	Pressure	Viscous	Internal
    Cd:	2.94638	2.92652	0.0198639	0
    Cd(f):	1.47085	1.46092	0.00993154	0
    Cd(r):	1.47553	1.4656	0.00993235	0
    Cl:	0.00467976	0.00467895	8.04007e-07	0
    Cl(f):	-0.00122713	-0.00122738	2.54123e-07	0
    Cl(r):	0.00590688	0.00590633	5.49885e-07	0
    CmPitch:	-0.003567	-0.00356686	-1.47881e-07	0
    CmRoll:	-0.00233988	-0.00233948	-4.02004e-07	0
    CmYaw:	1.47319	1.46326	0.00993195	0
    Cs:	1.93174e-21	1.7651e-21	1.66635e-22	0
    Cs(f):	1.47319	1.46326	0.00993195	0
    Cs(r):	-1.47319	-1.46326	-0.00993195	0

    writing force and moment coefficient files.

Time = 2

smoothSolver:  Solving for Ux, Initial residual = 0.25649, Final residual = 0.0113777, No Iterations 2
smoothSolver:  Solving for Uy, Initial residual = 0.336184, Final residual = 0.0142198, No Iterations 2
GAMG:  Solving for p, Initial residual = 0.0408419, Final residual = 0.00144627, No Iterations 22
GAMG:  Solving for p, Initial residual = 0.0236835, Final residual = 0.000903553, No Iterations 16
GAMG:  Solving for p, Initial residual = 0.00795388, Final residual = 0.000393882, No Iterations 21
GAMG:  Solving for p, Initial residual = 0.00802162, Final residual = 0.000326583, No Iterations 18
time step continuity errors : sum local = 0.00019315, global = -7.48678e-08, cumulative = 7.60494e-07
smoothSolver:  Solving for omega, Initial residual = 5.71385e-05, Final residual = 1.67884e-06, No Iterations 4
bounding omega, min: -438.481 max: 54491.2 average: 81.8092
smoothSolver:  Solving for k, Initial residual = 0.075934, Final residual = 0.00246768, No Iterations 4
bounding k, min: 0 max: 2.89418e-14 average: 1.03904e-15
ExecutionTime = 5.53 s  ClockTime = 5 s

forceCoeffs forceCoeffs1 write:
    Coefficient	Total	Pressure	Viscous	Internal
    Cd:	4.02781	4.00878	0.0190317	0
    Cd(f):	2.01048	2.00096	0.00952216	0
    Cd(r):	2.01733	2.00782	0.00950953	0
    Cl:	0.00685374	0.00686637	-1.26293e-05	0
    Cl(f):	-0.000884934	-0.000878839	-6.09542e-06	0
    Cl(r):	0.00773867	0.00774521	-6.5339e-06	0
    CmPitch:	-0.0043118	-0.00431202	2.19236e-07	0
    CmRoll:	-0.00342687	-0.00343318	6.31466e-06	0
    CmYaw:	2.0139	2.00439	0.00951584	0
    Cs:	2.28824e-21	2.03456e-21	2.53671e-22	0
    Cs(f):	2.0139	2.00439	0.00951584	0
    Cs(r):	-2.0139	-2.00439	-0.00951584	0

    writing force and moment coefficient files.

Time = 3

smoothSolver:  Solving for Ux, Initial residual = 0.134596, Final residual = 0.00645501, No Iterations 2
smoothSolver:  Solving for Uy, Initial residual = 0.229204, Final residual = 0.0102362, No Iterations 2
GAMG:  Solving for p, Initial residual = 0.0286301, Final residual = 0.00125065, No Iterations 12
GAMG:  Solving for p, Initial residual = 0.0123486, Final residual = 0.000535043, No Iterations 24
GAMG:  Solving for p, Initial residual = 0.00782204, Final residual = 0.000324844, No Iterations 21
GAMG:  Solving for p, Initial residual = 0.0055286, Final residual = 0.000268969, No Iterations 18
time step continuity errors : sum local = 9.90149e-05, global = 8.67131e-07, cumulative = 1.62763e-06
smoothSolver:  Solving for omega, Initial residual = 6.83233e-05, Final residual = 2.03673e-06, No Iterations 4
bounding omega, min: -11.9443 max: 54491.2 average: 84.5695
smoothSolver:  Solving for k, Initial residual = 0.0275656, Final residual = 0.000639264, No Iterations 4
bounding k, min: 0 max: 1.48473e-13 average: 1.15418e-15
ExecutionTime = 6.67 s  ClockTime = 6 s

forceCoeffs forceCoeffs1 write:
    Coefficient	Total	Pressure	Viscous	Internal
    Cd:	3.72463	3.70582	0.0188111	0
    Cd(f):	1.85992	1.85051	0.00940953	0
    Cd(r):	1.86471	1.85531	0.00940162	0
    Cl:	0.0047925	0.00480041	-7.91013e-06	0
    Cl(f):	-0.000246033	-0.000242276	-3.75704e-06	0
    Cl(r):	0.00503854	0.00504269	-4.1531e-06	0
    CmPitch:	-0.00264228	-0.00264248	1.98031e-07	0
    CmRoll:	-0.00239625	-0.00240021	3.95507e-06	0
    CmYaw:	1.86232	1.85291	0.00940557	0
    Cs:	2.0637e-21	1.72582e-21	3.37877e-22	0
    Cs(f):	1.86232	1.85291	0.00940557	0
    Cs(r):	-1.86232	-1.85291	-0.00940557	0

    writing force and moment coefficient files.

Time = 4

smoothSolver:  Solving for Ux, Initial residual = 0.0817877, Final residual = 0.00389971, No Iterations 2
smoothSolver:  Solving for Uy, Initial residual = 0.15105, Final residual = 0.00696329, No Iterations 2
GAMG:  Solving for p, Initial residual = 0.0522133, Final residual = 0.00252502, No Iterations 17
GAMG:  Solving for p, Initial residual = 0.196347, Final residual = 0.00856643, No Iterations 23
GAMG:  Solving for p, Initial residual = 0.0262498, Final residual = 0.00109876, No Iterations 21
GAMG:  Solving for p, Initial residual = 0.0248123, Final residual = 0.00113671, No Iterations 17
time step continuity errors : sum local = 0.00017794, global = 1.56738e-06, cumulative = 3.195e-06
smoothSolver:  Solving for omega, Initial residual = 8.35457e-05, Final residual = 2.09073e-06, No Iterations 4
bounding omega, min: -80.5386 max: 54491.2 average: 87.6016
smoothSolver:  Solving for k, Initial residual = 0.0171802, Final residual = 0.00156082, No Iterations 2
bounding k, min: 0 max: 6.80489e-13 average: 1.58197e-15
ExecutionTime = 8.18 s  ClockTime = 8 s

forceCoeffs forceCoeffs1 write:
    Coefficient	Total	Pressure	Viscous	Internal
    Cd:	2.52049	2.50187	0.018621	0
    Cd(f):	1.25999	1.25068	0.00931389	0
    Cd(r):	1.2605	1.25119	0.00930711	0
    Cl:	0.000509587	0.000516372	-6.78524e-06	0
    Cl(f):	0.000392081	0.0003953	-3.21885e-06	0
    Cl(r):	0.000117506	0.000121072	-3.56639e-06	0
    CmPitch:	0.000137288	0.000137114	1.73773e-07	0
    CmRoll:	-0.000254793	-0.000258186	3.39262e-06	0
    CmYaw:	1.26025	1.25094	0.0093105	0
    Cs:	1.43904e-21	1.13179e-21	3.07246e-22	0
    Cs(f):	1.26025	1.25094	0.0093105	0
    Cs(r):	-1.26025	-1.25094	-0.0093105	0

    writing force and moment coefficient files.

Time = 5

smoothSolver:  Solving for Ux, Initial residual = 0.0448202, Final residual = 0.00213285, No Iterations 2
smoothSolver:  Solving for Uy, Initial residual = 0.0866076, Final residual = 0.00408035, No Iterations 2
GAMG:  Solving for p, Initial residual = 0.0514737, Final residual = 0.00209667, No Iterations 18
GAMG:  Solving for p, Initial residual = 0.0712542, Final residual = 0.00350058, No Iterations 14
GAMG:  Solving for p, Initial residual = 0.0130532, Final residual = 0.000544537, No Iterations 17
GAMG:  Solving for p, Initial residual = 0.0133647, Final residual = 0.000659437, No Iterations 16
time step continuity errors : sum local = 0.000309376, global = 1.40226e-06, cumulative = 4.59726e-06
smoothSolver:  Solving for omega, Initial residual = 8.2582e-05, Final residual = 1.70967e-06, No Iterations 4
bounding omega, min: -76.2477 max: 54491.2 average: 90.494
smoothSolver:  Solving for k, Initial residual = 0.0155843, Final residual = 0.000989914, No Iterations 2
bounding k, min: -3.40359e-16 max: 3.4635e-12 average: 3.31001e-15
ExecutionTime = 9.55 s  ClockTime = 9 s

forceCoeffs forceCoeffs1 write:
    Coefficient	Total	Pressure	Viscous	Internal
    Cd:	0.973909	0.955573	0.0183367	0
    Cd(f):	0.490249	0.481077	0.00917247	0
    Cd(r):	0.48366	0.474496	0.00916422	0
    Cl:	-0.00658892	-0.00658068	-8.24447e-06	0
    Cl(f):	4.06028e-05	4.44168e-05	-3.81403e-06	0
    Cl(r):	-0.00662952	-0.00662509	-4.43044e-06	0
    CmPitch:	0.00333506	0.00333476	3.08205e-07	0
    CmRoll:	0.00329446	0.00329034	4.12223e-06	0
    CmYaw:	0.486955	0.477786	0.00916834	0
    Cs:	6.66925e-22	4.28376e-22	2.3855e-22	0
    Cs(f):	0.486955	0.477786	0.00916834	0
    Cs(r):	-0.486955	-0.477786	-0.00916834	0

    writing force and moment coefficient files.

Time = 6

smoothSolver:  Solving for Ux, Initial residual = 0.0162186, Final residual = 0.000834683, No Iterations 2
smoothSolver:  Solving for Uy, Initial residual = 0.0308911, Final residual = 0.00149946, No Iterations 2
GAMG:  Solving for p, Initial residual = 0.150811, Final residual = 0.00684258, No Iterations 20
GAMG:  Solving for p, Initial residual = 0.0530121, Final residual = 0.00261797, No Iterations 14
GAMG:  Solving for p, Initial residual = 0.0123073, Final residual = 0.000562314, No Iterations 17
GAMG:  Solving for p, Initial residual = 0.0129375, Final residual = 0.000523203, No Iterations 16
time step continuity errors : sum local = 0.000276157, global = 1.36124e-06, cumulative = 5.9585e-06
smoothSolver:  Solving for omega, Initial residual = 8.0549e-05, Final residual = 1.48545e-06, No Iterations 4
bounding omega, min: -218.165 max: 54491.2 average: 93.1429
smoothSolver:  Solving for k, Initial residual = 0.0156185, Final residual = 0.000776925, No Iterations 2
bounding k, min: -1.6086e-14 max: 1.59251e-11 average: 1.06551e-14
ExecutionTime = 10.86 s  ClockTime = 11 s

forceCoeffs forceCoeffs1 write:
    Coefficient	Total	Pressure	Viscous	Internal
    Cd:	-0.379336	-0.397344	0.0180084	0
    Cd(f):	-0.183683	-0.192694	0.00901079	0
    Cd(r):	-0.195653	-0.20465	0.00899759	0
    Cl:	-0.0119698	-0.0119566	-1.32033e-05	0
    Cl(f):	-0.000201589	-0.000195133	-6.45518e-06	0
    Cl(r):	-0.0117682	-0.0117615	-6.74812e-06	0
    CmPitch:	0.00578331	0.00578317	1.46466e-07	0
    CmRoll:	0.0059849	0.0059783	6.60165e-06	0
    CmYaw:	-0.189668	-0.198672	0.00900419	0
    Cs:	-1.26933e-22	-1.09304e-22	-1.76293e-23	0
    Cs(f):	-0.189668	-0.198672	0.00900419	0
    Cs(r):	0.189668	0.198672	-0.00900419	0

    writing force and moment coefficient files.

Time = 7

smoothSolver:  Solving for Ux, Initial residual = 0.0146085, Final residual = 0.000905731, No Iterations 2
smoothSolver:  Solving for Uy, Initial residual = 0.027091, Final residual = 0.00148203, No Iterations 2
GAMG:  Solving for p, Initial residual = 0.126447, Final residual = 0.00575007, No Iterations 20
GAMG:  Solving for p, Initial residual = 0.0581085, Final residual = 0.00275588, No Iterations 16
GAMG:  Solving for p, Initial residual = 0.0175085, Final residual = 0.000786206, No Iterations 17
GAMG:  Solving for p, Initial residual = 0.0182527, Final residual = 0.000882689, No Iterations 16
time step continuity errors : sum local = 0.000271793, global = 2.18834e-06, cumulative = 8.14684e-06
smoothSolver:  Solving for omega, Initial residual = 8.1838e-05, Final residual = 1.39672e-06, No Iterations 4
bounding omega, min: -4.39734 max: 54491.2 average: 95.8787
smoothSolver:  Solving for k, Initial residual = 0.015441, Final residual = 0.000624407, No Iterations 2
bounding k, min: -1.31161e-13 max: 7.42414e-11 average: 4.27781e-14
ExecutionTime = 12.1 s  ClockTime = 12 s

forceCoeffs forceCoeffs1 write:
    Coefficient	Total	Pressure	Viscous	Internal
    Cd:	-1.21507	-1.2326	0.017527	0
    Cd(f):	-0.599831	-0.608601	0.0087697	0
    Cd(r):	-0.615244	-0.624001	0.00875728	0
    Cl:	-0.0154125	-0.0154001	-1.24287e-05	0
    Cl(f):	-0.000779493	-0.000773753	-5.74008e-06	0
    Cl(r):	-0.014633	-0.0146263	-6.68861e-06	0
    CmPitch:	0.00692675	0.00692628	4.74265e-07	0
    CmRoll:	0.00770625	0.00770003	6.21434e-06	0
    CmYaw:	-0.607537	-0.616301	0.00876349	0
    Cs:	-6.12502e-22	-4.02043e-22	-2.10459e-22	0
    Cs(f):	-0.607537	-0.616301	0.00876349	0
    Cs(r):	0.607537	0.616301	-0.00876349	0

    writing force and moment coefficient files.

Time = 8

smoothSolver:  Solving for Ux, Initial residual = 0.0316953, Final residual = 0.00176066, No Iterations 2
smoothSolver:  Solving for Uy, Initial residual = 0.0627605, Final residual = 0.00333252, No Iterations 2
GAMG:  Solving for p, Initial residual = 0.097903, Final residual = 0.00389129, No Iterations 12
GAMG:  Solving for p, Initial residual = 0.0621974, Final residual = 0.00281967, No Iterations 17
GAMG:  Solving for p, Initial residual = 0.0271904, Final residual = 0.00117727, No Iterations 19
GAMG:  Solving for p, Initial residual = 0.0274948, Final residual = 0.00127025, No Iterations 16
time step continuity errors : sum local = 0.000185869, global = 2.29557e-06, cumulative = 1.04424e-05
smoothSolver:  Solving for omega, Initial residual = 9.43357e-05, Final residual = 1.55968e-06, No Iterations 4
bounding omega, min: -17.5315 max: 54491.2 average: 98.9612
smoothSolver:  Solving for k, Initial residual = 0.0156824, Final residual = 0.00049631, No Iterations 2
bounding k, min: -1.43696e-14 max: 3.44294e-10 average: 1.91036e-13
ExecutionTime = 13.32 s  ClockTime = 13 s

forceCoeffs forceCoeffs1 write:
    Coefficient	Total	Pressure	Viscous	Internal
    Cd:	-1.46444	-1.48129	0.0168536	0
    Cd(f):	-0.72712	-0.735545	0.00842534	0
    Cd(r):	-0.737317	-0.745746	0.00842831	0
    Cl:	-0.0101978	-0.0102007	2.96142e-06	0
    Cl(f):	-0.000434222	-0.000435922	1.70009e-06	0
    Cl(r):	-0.00976356	-0.00976482	1.26134e-06	0
    CmPitch:	0.00466467	0.00466445	2.19374e-07	0
    CmRoll:	0.00509889	0.00510037	-1.48071e-06	0
    CmYaw:	-0.732219	-0.740645	0.00842682	0
    Cs:	-7.22255e-22	-4.40981e-22	-2.81274e-22	0
    Cs(f):	-0.732219	-0.740645	0.00842682	0
    Cs(r):	0.732219	0.740645	-0.00842682	0

    writing force and moment coefficient files.

Time = 9

smoothSolver:  Solving for Ux, Initial residual = 0.0395992, Final residual = 0.00206602, No Iterations 2
smoothSolver:  Solving for Uy, Initial residual = 0.0814055, Final residual = 0.00425329, No Iterations 2
GAMG:  Solving for p, Initial residual = 0.092852, Final residual = 0.0039426, No Iterations 15
GAMG:  Solving for p, Initial residual = 0.173602, Final residual = 0.00768704, No Iterations 20
GAMG:  Solving for p, Initial residual = 0.0462605, Final residual = 0.00229961, No Iterations 19
GAMG:  Solving for p, Initial residual = 0.0286036, Final residual = 0.00122165, No Iterations 16
time step continuity errors : sum local = 0.00012131, global = -2.35398e-07, cumulative = 1.0207e-05
smoothSolver:  Solving for omega, Initial residual = 0.000102789, Final residual = 1.77794e-06, No Iterations 4
bounding omega, min: -2.66335 max: 54491.2 average: 102.564
smoothSolver:  Solving for k, Initial residual = 0.0159116, Final residual = 0.000393477, No Iterations 2
bounding k, min: -1.99701e-13 max: 1.61374e-09 average: 8.91338e-13
ExecutionTime = 14.41 s  ClockTime = 14 s

forceCoeffs forceCoeffs1 write:
    Coefficient	Total	Pressure	Viscous	Internal
    Cd:	-1.22896	-1.24493	0.0159685	0
    Cd(f):	-0.615926	-0.62391	0.00798362	0
    Cd(r):	-0.613037	-0.621022	0.00798489	0
    Cl:	0.00288888	0.00288761	1.26311e-06	0
    Cl(f):	0.0010701	0.00106801	2.09471e-06	0
    Cl(r):	0.00181877	0.0018196	-8.31607e-07	0
    CmPitch:	-0.000374334	-0.000375797	1.46316e-06	0
    CmRoll:	-0.00144444	-0.00144381	-6.31553e-07	0
    CmYaw:	-0.614482	-0.622466	0.00798425	0
    Cs:	-5.45355e-22	-3.17314e-22	-2.28041e-22	0
    Cs(f):	-0.614482	-0.622466	0.00798425	0
    Cs(r):	0.614482	0.622466	-0.00798425	0

    writing force and moment coefficient files.

Time = 10

smoothSolver:  Solving for Ux, Initial residual = 0.0343414, Final residual = 0.00172056, No Iterations 2
smoothSolver:  Solving for Uy, Initial residual = 0.0730752, Final residual = 0.00383313, No Iterations 2
GAMG:  Solving for p, Initial residual = 0.112264, Final residual = 0.00447261, No Iterations 14
GAMG:  Solving for p, Initial residual = 0.0621194, Final residual = 0.00239331, No Iterations 16
GAMG:  Solving for p, Initial residual = 0.0152653, Final residual = 0.000674923, No Iterations 21
GAMG:  Solving for p, Initial residual = 0.0124492, Final residual = 0.000612536, No Iterations 14
time step continuity errors : sum local = 0.000134959, global = -6.78881e-07, cumulative = 9.52813e-06
smoothSolver:  Solving for omega, Initial residual = 0.000116227, Final residual = 1.82687e-06, No Iterations 4
bounding omega, min: -20.899 max: 54491.2 average: 106.483
smoothSolver:  Solving for k, Initial residual = 0.0161159, Final residual = 0.000319797, No Iterations 2
bounding k, min: -1.59343e-13 max: 7.94543e-09 average: 4.2638e-12
ExecutionTime = 16.15 s  ClockTime = 16 s

forceCoeffs forceCoeffs1 write:
    Coefficient	Total	Pressure	Viscous	Internal
    Cd:	-0.725105	-0.740103	0.0149981	0
    Cd(f):	-0.371841	-0.379346	0.0075057	0
    Cd(r):	-0.353264	-0.360757	0.00749239	0
    Cl:	0.0185762	0.0185895	-1.33093e-05	0
    Cl(f):	0.00301964	0.00302423	-4.58502e-06	0
    Cl(r):	0.0155565	0.0155652	-8.72431e-06	0
    CmPitch:	-0.00626844	-0.00627051	2.06964e-06	0
    CmRoll:	-0.00928808	-0.00929473	6.65467e-06	0
    CmYaw:	-0.362552	-0.370051	0.00749904	0
    Cs:	-4.13484e-22	-1.45579e-22	-2.67905e-22	0
    Cs(f):	-0.362552	-0.370051	0.00749904	0
    Cs(r):	0.362552	0.370051	-0.00749904	0

    writing force and moment coefficient files.

Time = 11

smoothSolver:  Solving for Ux, Initial residual = 0.0200191, Final residual = 0.0010518, No Iterations 2
smoothSolver:  Solving for Uy, Initial residual = 0.0415257, Final residual = 0.00213512, No Iterations 2
GAMG:  Solving for p, Initial residual = 0.345972, Final residual = 0.0138624, No Iterations 16
GAMG:  Solving for p, Initial residual = 0.0721972, Final residual = 0.00333523, No Iterations 14
GAMG:  Solving for p, Initial residual = 0.0189827, Final residual = 0.000782302, No Iterations 17
GAMG:  Solving for p, Initial residual = 0.0178536, Final residual = 0.00081447, No Iterations 15
time step continuity errors : sum local = 0.000170958, global = -1.15172e-06, cumulative = 8.37641e-06
smoothSolver:  Solving for omega, Initial residual = 0.00011565, Final residual = 1.75598e-06, No Iterations 4
bounding omega, min: -3.40509 max: 54491.2 average: 110.688
smoothSolver:  Solving for k, Initial residual = 0.0163654, Final residual = 0.000291799, No Iterations 2
bounding k, min: -7.29522e-12 max: 3.9366e-08 average: 2.05977e-11
ExecutionTime = 17.35 s  ClockTime = 17 s

forceCoeffs forceCoeffs1 write:
    Coefficient	Total	Pressure	Viscous	Internal
    Cd:	-0.180429	-0.19454	0.0141109	0
    Cd(f):	-0.106161	-0.113217	0.00705643	0
    Cd(r):	-0.0742681	-0.0813226	0.0070545	0
    Cl:	0.0318924	0.0318944	-1.9374e-06	0
    Cl(f):	0.00464366	0.00464248	1.17708e-06	0
    Cl(r):	0.0272488	0.0272519	-3.11447e-06	0
    CmPitch:	-0.0113026	-0.0113047	2.14577e-06	0
    CmRoll:	-0.0159462	-0.0159472	9.68699e-07	0
    CmYaw:	-0.0902143	-0.0972698	0.00705546	0
    Cs:	-5.23587e-23	8.74168e-23	-1.39776e-22	0
    Cs(f):	-0.0902143	-0.0972698	0.00705546	0
    Cs(r):	0.0902143	0.0972698	-0.00705546	0

    writing force and moment coefficient files.

Time = 12

smoothSolver:  Solving for Ux, Initial residual = 0.00867968, Final residual = 0.000605908, No Iterations 2
smoothSolver:  Solving for Uy, Initial residual = 0.0173959, Final residual = 0.00102408, No Iterations 2
GAMG:  Solving for p, Initial residual = 0.160757, Final residual = 0.00729932, No Iterations 20
GAMG:  Solving for p, Initial residual = 0.078259, Final residual = 0.00361551, No Iterations 16
GAMG:  Solving for p, Initial residual = 0.0239697, Final residual = 0.00104931, No Iterations 17
GAMG:  Solving for p, Initial residual = 0.0241899, Final residual = 0.00115696, No Iterations 15
time step continuity errors : sum local = 0.000197392, global = -1.6942e-06, cumulative = 6.68221e-06
smoothSolver:  Solving for omega, Initial residual = 0.000102807, Final residual = 1.5493e-06, No Iterations 4
bounding omega, min: -5.74692 max: 54491.2 average: 114.342
smoothSolver:  Solving for k, Initial residual = 0.0165358, Final residual = 0.000290707, No Iterations 2
bounding k, min: -4.49492e-11 max: 1.99584e-07 average: 9.91899e-11
ExecutionTime = 18.63 s  ClockTime = 18 s

forceCoeffs forceCoeffs1 write:
    Coefficient	Total	Pressure	Viscous	Internal
    Cd:	0.242533	0.229127	0.0134057	0
    Cd(f):	0.103034	0.0963363	0.0066974	0
    Cd(r):	0.139499	0.132791	0.00670827	0
    Cl:	0.0364656	0.0364548	1.08736e-05	0
    Cl(f):	0.00541108	0.00540476	6.3179e-06	0
    Cl(r):	0.0310545	0.03105	4.55574e-06	0
    CmPitch:	-0.0128217	-0.0128226	8.81081e-07	0
    CmRoll:	-0.0182328	-0.0182274	-5.43682e-06	0
    CmYaw:	0.121267	0.114564	0.00670284	0
    Cs:	2.35021e-22	2.76847e-22	-4.18257e-23	0
    Cs(f):	0.121267	0.114564	0.00670284	0
    Cs(r):	-0.121267	-0.114564	-0.00670284	0

    writing force and moment coefficient files.

Time = 13

smoothSolver:  Solving for Ux, Initial residual = 0.0133418, Final residual = 0.000823912, No Iterations 2
smoothSolver:  Solving for Uy, Initial residual = 0.0278479, Final residual = 0.00158841, No Iterations 2
GAMG:  Solving for p, Initial residual = 0.102578, Final residual = 0.00476589, No Iterations 16
GAMG:  Solving for p, Initial residual = 0.0770469, Final residual = 0.00348456, No Iterations 16
GAMG:  Solving for p, Initial residual = 0.0310737, Final residual = 0.0014398, No Iterations 17
GAMG:  Solving for p, Initial residual = 0.0323528, Final residual = 0.00150886, No Iterations 15
time step continuity errors : sum local = 0.000172256, global = -2.186e-06, cumulative = 4.49622e-06
smoothSolver:  Solving for omega, Initial residual = 8.47529e-05, Final residual = 1.25372e-06, No Iterations 4
bounding omega, min: -10.9644 max: 54491.2 average: 117.369
smoothSolver:  Solving for k, Initial residual = 0.0166315, Final residual = 0.00028823, No Iterations 2
bounding k, min: -8.0189e-11 max: 1.00733e-06 average: 4.79141e-10
ExecutionTime = 19.74 s  ClockTime = 19 s

forceCoeffs forceCoeffs1 write:
    Coefficient	Total	Pressure	Viscous	Internal
    Cd:	0.467996	0.455083	0.0129131	0
    Cd(f):	0.218741	0.212295	0.00644579	0
    Cd(r):	0.249255	0.242787	0.00646732	0
    Cl:	0.0305133	0.0304918	2.15285e-05	0
    Cl(f):	0.0046004	0.00458913	1.12704e-05	0
    Cl(r):	0.0259129	0.0259027	1.02581e-05	0
    CmPitch:	-0.0106563	-0.0106568	5.06124e-07	0
    CmRoll:	-0.0152567	-0.0152459	-1.07642e-05	0
    CmYaw:	0.233998	0.227541	0.00645656	0
    Cs:	4.21308e-22	4.1094e-22	1.03679e-23	0
    Cs(f):	0.233998	0.227541	0.00645656	0
    Cs(r):	-0.233998	-0.227541	-0.00645656	0

    writing force and moment coefficient files.

Time = 14

smoothSolver:  Solving for Ux, Initial residual = 0.0145568, Final residual = 0.000802136, No Iterations 2
smoothSolver:  Solving for Uy, Initial residual = 0.0319277, Final residual = 0.00174061, No Iterations 2
GAMG:  Solving for p, Initial residual = 0.0887094, Final residual = 0.0036732, No Iterations 14
GAMG:  Solving for p, Initial residual = 0.0949977, Final residual = 0.00438195, No Iterations 16
GAMG:  Solving for p, Initial residual = 0.0627105, Final residual = 0.00293191, No Iterations 17
GAMG:  Solving for p, Initial residual = 0.0835068, Final residual = 0.00390529, No Iterations 14
time step continuity errors : sum local = 0.000134127, global = -2.02914e-06, cumulative = 2.46708e-06
smoothSolver:  Solving for omega, Initial residual = 7.28096e-05, Final residual = 1.07987e-06, No Iterations 4
bounding omega, min: -5.9768 max: 54491.3 average: 119.839
smoothSolver:  Solving for k, Initial residual = 0.0166191, Final residual = 0.000289686, No Iterations 2
bounding k, min: -1.12889e-11 max: 5.07145e-06 average: 2.31419e-09
ExecutionTime = 20.74 s  ClockTime = 20 s

forceCoeffs forceCoeffs1 write:
    Coefficient	Total	Pressure	Viscous	Internal
    Cd:	0.49897	0.486362	0.0126079	0
    Cd(f):	0.242374	0.23608	0.0062941	0
    Cd(r):	0.256596	0.250282	0.00631383	0
    Cl:	0.0142216	0.0142018	1.97372e-05	0
    Cl(f):	0.00229638	0.00228745	8.9225e-06	0
    Cl(r):	0.0119252	0.0119144	1.08147e-05	0
    CmPitch:	-0.00481441	-0.00481346	-9.46096e-07	0
    CmRoll:	-0.00711079	-0.00710092	-9.8686e-06	0
    CmYaw:	0.249485	0.243181	0.00630396	0
    Cs:	4.58221e-22	4.37836e-22	2.03848e-23	0
    Cs(f):	0.249485	0.243181	0.00630396	0
    Cs(r):	-0.249485	-0.243181	-0.00630396	0

    writing force and moment coefficient files.

Time = 15

smoothSolver:  Solving for Ux, Initial residual = 0.0122024, Final residual = 0.000631704, No Iterations 2
smoothSolver:  Solving for Uy, Initial residual = 0.0279382, Final residual = 0.00145983, No Iterations 2
GAMG:  Solving for p, Initial residual = 0.109037, Final residual = 0.00496435, No Iterations 12
GAMG:  Solving for p, Initial residual = 0.161202, Final residual = 0.00723019, No Iterations 16
GAMG:  Solving for p, Initial residual = 0.0387314, Final residual = 0.00186894, No Iterations 19
GAMG:  Solving for p, Initial residual = 0.027985, Final residual = 0.00130099, No Iterations 13
time step continuity errors : sum local = 9.85384e-05, global = -7.75074e-07, cumulative = 1.692e-06
smoothSolver:  Solving for omega, Initial residual = 6.67756e-05, Final residual = 1.029e-06, No Iterations 4
bounding omega, min: -3.5862 max: 54491.3 average: 122.04
smoothSolver:  Solving for k, Initial residual = 0.016564, Final residual = 0.000280095, No Iterations 2
bounding k, min: -1.07108e-09 max: 2.53807e-05 average: 1.12293e-08
ExecutionTime = 21.69 s  ClockTime = 21 s

forceCoeffs forceCoeffs1 write:
    Coefficient	Total	Pressure	Viscous	Internal
    Cd:	0.39099	0.378604	0.0123861	0
    Cd(f):	0.197232	0.191047	0.00618553	0
    Cd(r):	0.193757	0.187557	0.00620053	0
    Cl:	-0.00347481	-0.00348981	1.50021e-05	0
    Cl(f):	-3.42464e-05	-4.08353e-05	6.58893e-06	0
    Cl(r):	-0.00344056	-0.00344898	8.41318e-06	0
    CmPitch:	0.00170316	0.00170407	-9.12126e-07	0
    CmRoll:	0.0017374	0.00174491	-7.50105e-06	0
    CmYaw:	0.195495	0.189302	0.00619303	0
    Cs:	4.9722e-22	3.77341e-22	1.19879e-22	0
    Cs(f):	0.195495	0.189302	0.00619303	0
    Cs(r):	-0.195495	-0.189302	-0.00619303	0

    writing force and moment coefficient files.

Time = 16

smoothSolver:  Solving for Ux, Initial residual = 0.00832049, Final residual = 0.000436725, No Iterations 2
smoothSolver:  Solving for Uy, Initial residual = 0.0189046, Final residual = 0.000966892, No Iterations 2
GAMG:  Solving for p, Initial residual = 0.179995, Final residual = 0.00773106, No Iterations 12
GAMG:  Solving for p, Initial residual = 0.0918778, Final residual = 0.0042076, No Iterations 14
GAMG:  Solving for p, Initial residual = 0.0223457, Final residual = 0.00109707, No Iterations 17
GAMG:  Solving for p, Initial residual = 0.0186364, Final residual = 0.000817594, No Iterations 12
time step continuity errors : sum local = 7.77009e-05, global = -2.39225e-07, cumulative = 1.45278e-06
smoothSolver:  Solving for omega, Initial residual = 5.94872e-05, Final residual = 9.07459e-07, No Iterations 4
bounding omega, min: -2.36704 max: 54491.5 average: 124.074
smoothSolver:  Solving for k, Initial residual = 0.0159049, Final residual = 0.000268207, No Iterations 2
bounding k, min: -1.58012e-09 max: 0.000126968 average: 5.43884e-08
ExecutionTime = 22.62 s  ClockTime = 22 s

forceCoeffs forceCoeffs1 write:
    Coefficient	Total	Pressure	Viscous	Internal
    Cd:	0.218658	0.206469	0.0121896	0
    Cd(f):	0.117853	0.111761	0.0060917	0
    Cd(r):	0.100805	0.0947073	0.0060979	0
    Cl:	-0.0170478	-0.017054	6.20067e-06	0
    Cl(f):	-0.00184468	-0.00184722	2.5468e-06	0
    Cl(r):	-0.0152031	-0.0152068	3.65387e-06	0
    CmPitch:	0.00667922	0.00667977	-5.53536e-07	0
    CmRoll:	0.00852389	0.00852699	-3.10033e-06	0
    CmYaw:	0.109329	0.103234	0.0060948	0
    Cs:	3.34385e-22	2.73378e-22	6.10073e-23	0
    Cs(f):	0.109329	0.103234	0.0060948	0
    Cs(r):	-0.109329	-0.103234	-0.0060948	0

    writing force and moment coefficient files.

Time = 17

smoothSolver:  Solving for Ux, Initial residual = 0.0046316, Final residual = 0.000281671, No Iterations 2
smoothSolver:  Solving for Uy, Initial residual = 0.00982804, Final residual = 0.000544731, No Iterations 2
GAMG:  Solving for p, Initial residual = 0.473804, Final residual = 0.0235012, No Iterations 14
GAMG:  Solving for p, Initial residual = 0.0873229, Final residual = 0.00422548, No Iterations 17
GAMG:  Solving for p, Initial residual = 0.0256603, Final residual = 0.0010759, No Iterations 17
GAMG:  Solving for p, Initial residual = 0.0212406, Final residual = 0.000849668, No Iterations 16
time step continuity errors : sum local = 7.07515e-05, global = 2.49295e-07, cumulative = 1.70207e-06
smoothSolver:  Solving for omega, Initial residual = 5.82951e-05, Final residual = 8.61044e-07, No Iterations 4
bounding omega, min: -0.628211 max: 54492.7 average: 126.093
smoothSolver:  Solving for k, Initial residual = 0.0161374, Final residual = 0.000259987, No Iterations 2
bounding k, min: -9.56898e-09 max: 0.000637048 average: 2.64799e-07
ExecutionTime = 23.65 s  ClockTime = 23 s

forceCoeffs forceCoeffs1 write:
    Coefficient	Total	Pressure	Viscous	Internal
    Cd:	0.052729	0.0407694	0.0119596	0
    Cd(f):	0.0377581	0.0317786	0.00597952	0
    Cd(r):	0.0149708	0.00899075	0.00598008	0
    Cl:	-0.0227873	-0.0227879	5.54063e-07	0
    Cl(f):	-0.00303932	-0.00303926	-6.12807e-08	0
    Cl(r):	-0.019748	-0.0197486	6.15344e-07	0
    CmPitch:	0.00835433	0.00835467	-3.38312e-07	0
    CmRoll:	0.0113937	0.0113939	-2.77031e-07	0
    CmYaw:	0.0263645	0.0203847	0.0059798	0
    Cs:	1.82138e-22	1.57403e-22	2.47351e-23	0
    Cs(f):	0.0263645	0.0203847	0.0059798	0
    Cs(r):	-0.0263645	-0.0203847	-0.0059798	0

    writing force and moment coefficient files.

Time = 18

smoothSolver:  Solving for Ux, Initial residual = 0.00429356, Final residual = 0.000273046, No Iterations 2
smoothSolver:  Solving for Uy, Initial residual = 0.00973543, Final residual = 0.000554831, No Iterations 2
GAMG:  Solving for p, Initial residual = 0.205648, Final residual = 0.00957593, No Iterations 15
GAMG:  Solving for p, Initial residual = 0.105135, Final residual = 0.00450552, No Iterations 17
GAMG:  Solving for p, Initial residual = 0.0379008, Final residual = 0.00151271, No Iterations 17
GAMG:  Solving for p, Initial residual = 0.0345917, Final residual = 0.0016804, No Iterations 16
time step continuity errors : sum local = 8.53874e-05, global = 7.43048e-07, cumulative = 2.44512e-06
smoothSolver:  Solving for omega, Initial residual = 5.80172e-05, Final residual = 9.15526e-07, No Iterations 4
bounding omega, min: -5.96918 max: 54498.6 average: 128.146
smoothSolver:  Solving for k, Initial residual = 0.0163341, Final residual = 0.000242589, No Iterations 2
bounding k, min: -2.8549e-08 max: 0.00317026 average: 1.3012e-06
ExecutionTime = 24.75 s  ClockTime = 24 s

forceCoeffs forceCoeffs1 write:
    Coefficient	Total	Pressure	Viscous	Internal
    Cd:	-0.0658567	-0.0775402	0.0116835	0
    Cd(f):	-0.0223294	-0.0281734	0.00584394	0
    Cd(r):	-0.0435273	-0.0493669	0.00583955	0
    Cl:	-0.0211979	-0.0211935	-4.38372e-06	0
    Cl(f):	-0.00354972	-0.00354795	-1.76757e-06	0
    Cl(r):	-0.0176482	-0.0176455	-2.61615e-06	0
    CmPitch:	0.00704922	0.0070488	4.24288e-07	0
    CmRoll:	0.0105989	0.0105967	2.19186e-06	0
    CmYaw:	-0.0329284	-0.0387701	0.00584174	0
    Cs:	6.51459e-23	6.51699e-23	-2.39427e-26	0
    Cs(f):	-0.0329284	-0.0387701	0.00584174	0
    Cs(r):	0.0329284	0.0387701	-0.00584174	0

    writing force and moment coefficient files.

Time = 19

smoothSolver:  Solving for Ux, Initial residual = 0.0054217, Final residual = 0.000304047, No Iterations 2
smoothSolver:  Solving for Uy, Initial residual = 0.0121313, Final residual = 0.000663017, No Iterations 2
GAMG:  Solving for p, Initial residual = 0.160113, Final residual = 0.00764428, No Iterations 10
GAMG:  Solving for p, Initial residual = 0.154783, Final residual = 0.00694965, No Iterations 16
GAMG:  Solving for p, Initial residual = 0.0831671, Final residual = 0.00349239, No Iterations 17
GAMG:  Solving for p, Initial residual = 0.0996068, Final residual = 0.00451935, No Iterations 16
time step continuity errors : sum local = 7.03148e-05, global = 1.33895e-06, cumulative = 3.78407e-06
smoothSolver:  Solving for omega, Initial residual = 5.84183e-05, Final residual = 8.58803e-07, No Iterations 4
bounding omega, min: -1.1237 max: 54528.6 average: 130.259
smoothSolver:  Solving for k, Initial residual = 0.0163009, Final residual = 0.000220563, No Iterations 2
bounding k, min: -7.01952e-07 max: 0.0160013 average: 6.43057e-06
ExecutionTime = 25.72 s  ClockTime = 25 s

forceCoeffs forceCoeffs1 write:
    Coefficient	Total	Pressure	Viscous	Internal
    Cd:	-0.12276	-0.134108	0.0113479	0
    Cd(f):	-0.0543632	-0.0600435	0.00568032	0
    Cd(r):	-0.068397	-0.0740647	0.00566763	0
    Cl:	-0.0140338	-0.0140212	-1.2686e-05	0
    Cl(f):	-0.00319274	-0.00318768	-5.06326e-06	0
    Cl(r):	-0.0108411	-0.0108335	-7.62279e-06	0
    CmPitch:	0.00382418	0.0038229	1.27976e-06	0
    CmRoll:	0.00701692	0.00701058	6.34302e-06	0
    CmYaw:	-0.0613801	-0.0670541	0.00567397	0
    Cs:	-3.35882e-23	6.1886e-24	-3.97768e-23	0
    Cs(f):	-0.0613801	-0.0670541	0.00567397	0
    Cs(r):	0.0613801	0.0670541	-0.00567397	0

    writing force and moment coefficient files.

Time = 20

smoothSolver:  Solving for Ux, Initial residual = 0.00520324, Final residual = 0.000277862, No Iterations 2
smoothSolver:  Solving for Uy, Initial residual = 0.0120341, Final residual = 0.000633733, No Iterations 2
GAMG:  Solving for p, Initial residual = 0.188702, Final residual = 0.00864263, No Iterations 10
GAMG:  Solving for p, Initial residual = 0.116341, Final residual = 0.00570114, No Iterations 17
GAMG:  Solving for p, Initial residual = 0.0433433, Final residual = 0.00202103, No Iterations 17
GAMG:  Solving for p, Initial residual = 0.0293034, Final residual = 0.00130517, No Iterations 15
time step continuity errors : sum local = 5.92732e-05, global = 1.12535e-06, cumulative = 4.90943e-06
smoothSolver:  Solving for omega, Initial residual = 5.93637e-05, Final residual = 8.09258e-07, No Iterations 4
bounding omega, min: -43.8285 max: 54680.5 average: 132.548
smoothSolver:  Solving for k, Initial residual = 0.0127909, Final residual = 0.000162874, No Iterations 2
bounding k, min: -4.5924e-06 max: 0.0501644 average: 2.67073e-05
ExecutionTime = 27.75 s  ClockTime = 27 s

forceCoeffs forceCoeffs1 write:
    Coefficient	Total	Pressure	Viscous	Internal
    Cd:	-0.124274	-0.13525	0.0109756	0
    Cd(f):	-0.0602213	-0.0657174	0.0054961	0
    Cd(r):	-0.0640528	-0.0695322	0.00547946	0
    Cl:	-0.00383146	-0.00381483	-1.6637e-05	0
    Cl(f):	-0.00218305	-0.00217655	-6.50658e-06	0
    Cl(r):	-0.00164841	-0.00163828	-1.01304e-05	0
    CmPitch:	-0.00026732	-0.000269132	1.81191e-06	0
    CmRoll:	0.00191573	0.00190741	8.31849e-06	0
    CmYaw:	-0.062137	-0.0676248	0.00548778	0
    Cs:	-5.74846e-23	-7.77558e-24	-4.9709e-23	0
    Cs(f):	-0.062137	-0.0676248	0.00548778	0
    Cs(r):	0.062137	0.0676248	-0.00548778	0

    writing force and moment coefficient files.

Time = 21

smoothSolver:  Solving for Ux, Initial residual = 0.00401093, Final residual = 0.000213039, No Iterations 2
smoothSolver:  Solving for Uy, Initial residual = 0.00978632, Final residual = 0.000500286, No Iterations 2
GAMG:  Solving for p, Initial residual = 0.363382, Final residual = 0.0162152, No Iterations 12
GAMG:  Solving for p, Initial residual = 0.0595995, Final residual = 0.00279445, No Iterations 16
GAMG:  Solving for p, Initial residual = 0.0211388, Final residual = 0.000928731, No Iterations 19
GAMG:  Solving for p, Initial residual = 0.0167593, Final residual = 0.000818229, No Iterations 12
time step continuity errors : sum local = 5.30517e-05, global = 6.11153e-07, cumulative = 5.52058e-06
smoothSolver:  Solving for omega, Initial residual = 5.93922e-05, Final residual = 8.48513e-07, No Iterations 4
bounding omega, min: -14.5465 max: 55088.4 average: 135.122
smoothSolver:  Solving for k, Initial residual = 0.00596201, Final residual = 7.66442e-05, No Iterations 2
bounding k, min: -2.40367e-06 max: 0.0960771 average: 6.91611e-05
ExecutionTime = 28.95 s  ClockTime = 29 s

forceCoeffs forceCoeffs1 write:
    Coefficient	Total	Pressure	Viscous	Internal
    Cd:	-0.0895432	-0.100147	0.0106034	0
    Cd(f):	-0.0468712	-0.0521798	0.00530857	0
    Cd(r):	-0.042672	-0.0479668	0.00529479	0
    Cl:	0.00419922	0.00421301	-1.37855e-05	0
    Cl(f):	-0.000954102	-0.000949067	-5.035e-06	0
    Cl(r):	0.00515333	0.00516208	-8.75051e-06	0
    CmPitch:	-0.00305371	-0.00305557	1.85775e-06	0
    CmRoll:	-0.00209961	-0.00210651	6.89276e-06	0
    CmYaw:	-0.0447716	-0.0500733	0.00530168	0
    Cs:	-8.48371e-23	1.79483e-23	-1.02785e-22	0
    Cs(f):	-0.0447716	-0.0500733	0.00530168	0
    Cs(r):	0.0447716	0.0500733	-0.00530168	0

    writing force and moment coefficient files.

Time = 22

smoothSolver:  Solving for Ux, Initial residual = 0.00253208, Final residual = 0.000138085, No Iterations 2
smoothSolver:  Solving for Uy, Initial residual = 0.00653537, Final residual = 0.000333723, No Iterations 2
GAMG:  Solving for p, Initial residual = 0.195618, Final residual = 0.00860131, No Iterations 10
GAMG:  Solving for p, Initial residual = 0.0479675, Final residual = 0.00239321, No Iterations 12
GAMG:  Solving for p, Initial residual = 0.0169771, Final residual = 0.000842188, No Iterations 19
GAMG:  Solving for p, Initial residual = 0.0139467, Final residual = 0.000648972, No Iterations 12
time step continuity errors : sum local = 4.20308e-05, global = 4.65672e-07, cumulative = 5.98625e-06
smoothSolver:  Solving for omega, Initial residual = 5.77987e-05, Final residual = 7.91504e-07, No Iterations 4
bounding omega, min: -44.2607 max: 55637.9 average: 137.978
smoothSolver:  Solving for k, Initial residual = 0.00308123, Final residual = 4.54046e-05, No Iterations 2
bounding k, min: -1.51494e-05 max: 0.142134 average: 0.000129314
ExecutionTime = 30.01 s  ClockTime = 30 s

forceCoeffs forceCoeffs1 write:
    Coefficient	Total	Pressure	Viscous	Internal
    Cd:	-0.0402507	-0.0505126	0.0102618	0
    Cd(f):	-0.0248712	-0.0300065	0.0051353	0
    Cd(r):	-0.0153795	-0.020506	0.00512652	0
    Cl:	0.00949173	0.00950051	-8.7809e-06	0
    Cl(f):	0.000163236	0.000165976	-2.74024e-06	0
    Cl(r):	0.00932849	0.00933454	-6.04066e-06	0
    CmPitch:	-0.00458263	-0.00458428	1.65021e-06	0
    CmRoll:	-0.00474587	-0.00475026	4.39045e-06	0
    CmYaw:	-0.0201254	-0.0252563	0.00513091	0
    Cs:	-5.01987e-23	6.49637e-23	-1.15162e-22	0
    Cs(f):	-0.0201254	-0.0252563	0.00513091	0
    Cs(r):	0.0201254	0.0252563	-0.00513091	0

    writing force and moment coefficient files.

Time = 23

smoothSolver:  Solving for Ux, Initial residual = 0.00176173, Final residual = 0.000100392, No Iterations 2
smoothSolver:  Solving for Uy, Initial residual = 0.00513924, Final residual = 0.000258964, No Iterations 2
GAMG:  Solving for p, Initial residual = 0.118826, Final residual = 0.00545594, No Iterations 10
GAMG:  Solving for p, Initial residual = 0.0447543, Final residual = 0.00186832, No Iterations 17
GAMG:  Solving for p, Initial residual = 0.0193429, Final residual = 0.000828501, No Iterations 17
GAMG:  Solving for p, Initial residual = 0.0153867, Final residual = 0.000735939, No Iterations 15
time step continuity errors : sum local = 3.91898e-05, global = 1.33169e-07, cumulative = 6.11942e-06
smoothSolver:  Solving for omega, Initial residual = 5.3875e-05, Final residual = 7.30516e-07, No Iterations 4
bounding omega, min: -7.5749 max: 56202.6 average: 140.943
smoothSolver:  Solving for k, Initial residual = 0.00194806, Final residual = 3.68332e-05, No Iterations 2
bounding k, min: -7.60858e-05 max: 0.182073 average: 0.000198677
ExecutionTime = 31.07 s  ClockTime = 31 s

forceCoeffs forceCoeffs1 write:
    Coefficient	Total	Pressure	Viscous	Internal
    Cd:	0.00458646	-0.00538056	0.00996702	0
    Cd(f):	-0.0031462	-0.00813077	0.00498456	0
    Cd(r):	0.00773267	0.00275021	0.00498245	0
    Cl:	0.0108789	0.010881	-2.1082e-06	0
    Cl(f):	0.000968949	0.000968847	1.01173e-07	0
    Cl(r):	0.00990992	0.00991213	-2.20937e-06	0
    CmPitch:	-0.00447049	-0.00447164	1.15527e-06	0
    CmRoll:	-0.00543944	-0.00544049	1.0541e-06	0
    CmYaw:	0.00229323	-0.00269028	0.00498351	0
    Cs:	4.22375e-23	1.17711e-22	-7.54737e-23	0
    Cs(f):	0.00229323	-0.00269028	0.00498351	0
    Cs(r):	-0.00229323	0.00269028	-0.00498351	0

    writing force and moment coefficient files.

Time = 24

smoothSolver:  Solving for Ux, Initial residual = 0.00207017, Final residual = 0.000107117, No Iterations 2
smoothSolver:  Solving for Uy, Initial residual = 0.00604972, Final residual = 0.000286622, No Iterations 2
GAMG:  Solving for p, Initial residual = 0.0859679, Final residual = 0.0038004, No Iterations 10
GAMG:  Solving for p, Initial residual = 0.042615, Final residual = 0.0019548, No Iterations 16
GAMG:  Solving for p, Initial residual = 0.0239681, Final residual = 0.00112886, No Iterations 15
GAMG:  Solving for p, Initial residual = 0.0187143, Final residual = 0.000920108, No Iterations 16
time step continuity errors : sum local = 3.75502e-05, global = -3.89763e-07, cumulative = 5.72966e-06
smoothSolver:  Solving for omega, Initial residual = 4.90969e-05, Final residual = 7.15881e-07, No Iterations 4
bounding omega, min: -4.4126 max: 56694.2 average: 143.842
smoothSolver:  Solving for k, Initial residual = 0.00132607, Final residual = 3.07873e-05, No Iterations 2
bounding k, min: -6.985e-06 max: 0.2373 average: 0.000273686
ExecutionTime = 32.25 s  ClockTime = 32 s

forceCoeffs forceCoeffs1 write:
    Coefficient	Total	Pressure	Viscous	Internal
    Cd:	0.0351891	0.0254625	0.00972665	0
    Cd(f):	0.0131608	0.00829989	0.0048609	0
    Cd(r):	0.0220284	0.0171626	0.00486575	0
    Cl:	0.00886756	0.00886271	4.85141e-06	0
    Cl(f):	0.00134586	0.00134296	2.89419e-06	0
    Cl(r):	0.00752171	0.00751975	1.95723e-06	0
    CmPitch:	-0.00308792	-0.00308839	4.68481e-07	0
    CmRoll:	-0.00443378	-0.00443136	-2.42571e-06	0
    CmYaw:	0.0175946	0.0127313	0.00486332	0
    Cs:	9.71351e-23	1.58722e-22	-6.1587e-23	0
    Cs(f):	0.0175946	0.0127313	0.00486332	0
    Cs(r):	-0.0175946	-0.0127313	-0.00486332	0

    writing force and moment coefficient files.

Time = 25

smoothSolver:  Solving for Ux, Initial residual = 0.00220845, Final residual = 0.000108301, No Iterations 2
smoothSolver:  Solving for Uy, Initial residual = 0.0062054, Final residual = 0.000284798, No Iterations 2
GAMG:  Solving for p, Initial residual = 0.0776594, Final residual = 0.00299556, No Iterations 10
GAMG:  Solving for p, Initial residual = 0.0480715, Final residual = 0.00239914, No Iterations 16
GAMG:  Solving for p, Initial residual = 0.0338018, Final residual = 0.00160149, No Iterations 16
GAMG:  Solving for p, Initial residual = 0.0298333, Final residual = 0.0013044, No Iterations 17
time step continuity errors : sum local = 3.11388e-05, global = -7.09945e-07, cumulative = 5.01971e-06
smoothSolver:  Solving for omega, Initial residual = 4.46337e-05, Final residual = 6.5872e-07, No Iterations 4
bounding omega, min: -16.5864 max: 57091.1 average: 146.597
smoothSolver:  Solving for k, Initial residual = 0.000963935, Final residual = 2.77798e-05, No Iterations 2
bounding k, min: -4.51978e-05 max: 0.312121 average: 0.000350983
ExecutionTime = 33.39 s  ClockTime = 33 s

forceCoeffs forceCoeffs1 write:
    Coefficient	Total	Pressure	Viscous	Internal
    Cd:	0.0485694	0.0390357	0.00953371	0
    Cd(f):	0.0218452	0.0170826	0.0047626	0
    Cd(r):	0.0267242	0.0219531	0.00477111	0
    Cl:	0.00487901	0.0048705	8.50267e-06	0
    Cl(f):	0.00132402	0.00131965	4.36169e-06	0
    Cl(r):	0.00355499	0.00355085	4.14099e-06	0
    CmPitch:	-0.00111549	-0.0011156	1.10349e-07	0
    CmRoll:	-0.0024395	-0.00243525	-4.25134e-06	0
    CmYaw:	0.0242847	0.0195178	0.00476686	0
    Cs:	1.29589e-22	1.77745e-22	-4.81562e-23	0
    Cs(f):	0.0242847	0.0195178	0.00476686	0
    Cs(r):	-0.0242847	-0.0195178	-0.00476686	0

    writing force and moment coefficient files.

Time = 26

smoothSolver:  Solving for Ux, Initial residual = 0.00195164, Final residual = 9.46032e-05, No Iterations 2
smoothSolver:  Solving for Uy, Initial residual = 0.00548053, Final residual = 0.000249163, No Iterations 2
GAMG:  Solving for p, Initial residual = 0.0813199, Final residual = 0.00376073, No Iterations 10
GAMG:  Solving for p, Initial residual = 0.0629482, Final residual = 0.00302659, No Iterations 17
GAMG:  Solving for p, Initial residual = 0.0589211, Final residual = 0.00266332, No Iterations 17
GAMG:  Solving for p, Initial residual = 0.0659454, Final residual = 0.00310982, No Iterations 16
time step continuity errors : sum local = 2.95917e-05, global = -5.96518e-07, cumulative = 4.42319e-06
smoothSolver:  Solving for omega, Initial residual = 4.21625e-05, Final residual = 6.19975e-07, No Iterations 4
bounding omega, min: -39.4113 max: 57361.8 average: 149.209
smoothSolver:  Solving for k, Initial residual = 0.000728503, Final residual = 2.62791e-05, No Iterations 2
bounding k, min: -4.54927e-05 max: 0.383032 average: 0.000428528
ExecutionTime = 34.53 s  ClockTime = 34 s

forceCoeffs forceCoeffs1 write:
    Coefficient	Total	Pressure	Viscous	Internal
    Cd:	0.0475495	0.0381759	0.00937366	0
    Cd(f):	0.0233869	0.0187038	0.00468313	0
    Cd(r):	0.0241626	0.0194721	0.00469053	0
    Cl:	0.000775664	0.000768257	7.40704e-06	0
    Cl(f):	0.00107489	0.00107088	4.00558e-06	0
    Cl(r):	-0.000299227	-0.000302628	3.40145e-06	0
    CmPitch:	0.000687058	0.000686756	3.02067e-07	0
    CmRoll:	-0.000387832	-0.000384128	-3.70352e-06	0
    CmYaw:	0.0237748	0.0190879	0.00468683	0
    Cs:	1.41028e-22	1.78852e-22	-3.78238e-23	0
    Cs(f):	0.0237748	0.0190879	0.00468683	0
    Cs(r):	-0.0237748	-0.0190879	-0.00468683	0

    writing force and moment coefficient files.

Time = 27

smoothSolver:  Solving for Ux, Initial residual = 0.0014883, Final residual = 7.44614e-05, No Iterations 2
smoothSolver:  Solving for Uy, Initial residual = 0.00426748, Final residual = 0.000196102, No Iterations 2
GAMG:  Solving for p, Initial residual = 0.0974687, Final residual = 0.00418289, No Iterations 10
GAMG:  Solving for p, Initial residual = 0.0814534, Final residual = 0.00355699, No Iterations 17
GAMG:  Solving for p, Initial residual = 0.0728669, Final residual = 0.00362554, No Iterations 17
GAMG:  Solving for p, Initial residual = 0.0420281, Final residual = 0.00185155, No Iterations 15
time step continuity errors : sum local = 2.33688e-05, global = -4.06655e-07, cumulative = 4.01654e-06
smoothSolver:  Solving for omega, Initial residual = 4.11405e-05, Final residual = 6.01011e-07, No Iterations 4
bounding omega, min: -3.64172 max: 57525.3 average: 151.745
smoothSolver:  Solving for k, Initial residual = 0.00058494, Final residual = 2.41385e-05, No Iterations 2
bounding k, min: -0.000166416 max: 0.446773 average: 0.00050888
ExecutionTime = 35.6 s  ClockTime = 35 s

forceCoeffs forceCoeffs1 write:
    Coefficient	Total	Pressure	Viscous	Internal
    Cd:	0.0376617	0.0284272	0.00923453	0
    Cd(f):	0.0200038	0.0153888	0.00461498	0
    Cd(r):	0.017658	0.0130384	0.00461955	0
    Cl:	-0.00234577	-0.00235034	4.57259e-06	0
    Cl(f):	0.000745612	0.000742936	2.67615e-06	0
    Cl(r):	-0.00309138	-0.00309328	1.89644e-06	0
    CmPitch:	0.0019185	0.00191811	3.89855e-07	0
    CmRoll:	0.00117289	0.00117517	-2.28629e-06	0
    CmYaw:	0.0188309	0.0142136	0.00461727	0
    Cs:	1.37684e-22	1.66168e-22	-2.84846e-23	0
    Cs(f):	0.0188309	0.0142136	0.00461727	0
    Cs(r):	-0.0188309	-0.0142136	-0.00461727	0

    writing force and moment coefficient files.

Time = 28

smoothSolver:  Solving for Ux, Initial residual = 0.00105246, Final residual = 5.51754e-05, No Iterations 2
smoothSolver:  Solving for Uy, Initial residual = 0.00315036, Final residual = 0.000151011, No Iterations 2
GAMG:  Solving for p, Initial residual = 0.128267, Final residual = 0.0057491, No Iterations 9
GAMG:  Solving for p, Initial residual = 0.0843052, Final residual = 0.00335242, No Iterations 16
GAMG:  Solving for p, Initial residual = 0.0598656, Final residual = 0.00298811, No Iterations 16
GAMG:  Solving for p, Initial residual = 0.0410986, Final residual = 0.00200534, No Iterations 13
time step continuity errors : sum local = 2.16945e-05, global = -2.95834e-07, cumulative = 3.7207e-06
smoothSolver:  Solving for omega, Initial residual = 4.38455e-05, Final residual = 6.0233e-07, No Iterations 4
bounding omega, min: -0.379398 max: 57604.3 average: 154.521
smoothSolver:  Solving for k, Initial residual = 0.000523256, Final residual = 2.42298e-05, No Iterations 2
bounding k, min: -8.00701e-05 max: 0.501486 average: 0.000592747
ExecutionTime = 36.6 s  ClockTime = 36 s

forceCoeffs forceCoeffs1 write:
    Coefficient	Total	Pressure	Viscous	Internal
    Cd:	0.0247339	0.0156278	0.00910612	0
    Cd(f):	0.0143399	0.00978677	0.00455317	0
    Cd(r):	0.010394	0.00584101	0.00455295	0
    Cl:	-0.00394598	-0.00394576	-2.23826e-07	0
    Cl(f):	0.000414914	0.000414186	7.2796e-07	0
    Cl(r):	-0.0043609	-0.00435994	-9.51785e-07	0
    CmPitch:	0.0023879	0.00238706	8.39873e-07	0
    CmRoll:	0.00197299	0.00197288	1.11913e-07	0
    CmYaw:	0.0123669	0.00781389	0.00455306	0
    Cs:	1.17362e-22	1.46895e-22	-2.95324e-23	0
    Cs(f):	0.0123669	0.00781389	0.00455306	0
    Cs(r):	-0.0123669	-0.00781389	-0.00455306	0

    writing force and moment coefficient files.

Time = 29

smoothSolver:  Solving for Ux, Initial residual = 0.000912502, Final residual = 4.88801e-05, No Iterations 2
smoothSolver:  Solving for Uy, Initial residual = 0.0031208, Final residual = 0.000149615, No Iterations 2
GAMG:  Solving for p, Initial residual = 0.171323, Final residual = 0.00742917, No Iterations 8
GAMG:  Solving for p, Initial residual = 0.0684404, Final residual = 0.00331339, No Iterations 15
GAMG:  Solving for p, Initial residual = 0.0632763, Final residual = 0.00302491, No Iterations 16
GAMG:  Solving for p, Initial residual = 0.0514611, Final residual = 0.00207341, No Iterations 14
time step continuity errors : sum local = 1.57055e-05, global = -1.71049e-07, cumulative = 3.54966e-06
smoothSolver:  Solving for omega, Initial residual = 5.16769e-05, Final residual = 6.2066e-07, No Iterations 4
bounding omega, min: -19.4241 max: 57612.2 average: 157.823
smoothSolver:  Solving for k, Initial residual = 0.000511952, Final residual = 2.59736e-05, No Iterations 2
bounding k, min: -9.60811e-05 max: 0.562336 average: 0.000680065
ExecutionTime = 37.5 s  ClockTime = 37 s

forceCoeffs forceCoeffs1 write:
    Coefficient	Total	Pressure	Viscous	Internal
    Cd:	0.0133128	0.00433053	0.0089823	0
    Cd(f):	0.00861909	0.00412574	0.00449335	0
    Cd(r):	0.00469374	0.000204792	0.00448895	0
    Cl:	-0.00392535	-0.00392095	-4.4058e-06	0
    Cl(f):	0.000122341	0.00012338	-1.03976e-06	0
    Cl(r):	-0.00404769	-0.00404433	-3.36604e-06	0
    CmPitch:	0.00208502	0.00208385	1.16314e-06	0
    CmRoll:	0.00196268	0.00196047	2.2029e-06	0
    CmYaw:	0.00665642	0.00216527	0.00449115	0
    Cs:	9.55179e-23	1.26995e-22	-3.14774e-23	0
    Cs(f):	0.00665642	0.00216527	0.00449115	0
    Cs(r):	-0.00665642	-0.00216527	-0.00449115	0

    writing force and moment coefficient files.

Time = 30

smoothSolver:  Solving for Ux, Initial residual = 0.000997363, Final residual = 5.08616e-05, No Iterations 2
smoothSolver:  Solving for Uy, Initial residual = 0.00334217, Final residual = 0.000157041, No Iterations 2
GAMG:  Solving for p, Initial residual = 0.195395, Final residual = 0.00802373, No Iterations 8
GAMG:  Solving for p, Initial residual = 0.0554953, Final residual = 0.00242467, No Iterations 16
GAMG:  Solving for p, Initial residual = 0.0387096, Final residual = 0.00191041, No Iterations 14
GAMG:  Solving for p, Initial residual = 0.0262196, Final residual = 0.00109677, No Iterations 16
time step continuity errors : sum local = 1.48793e-05, global = 2.14569e-07, cumulative = 3.76422e-06
smoothSolver:  Solving for omega, Initial residual = 4.79619e-05, Final residual = 5.97975e-07, No Iterations 4
bounding omega, min: -8.7654 max: 57574.2 average: 160.792
smoothSolver:  Solving for k, Initial residual = 0.000472935, Final residual = 2.63803e-05, No Iterations 2
bounding k, min: -1.62548e-05 max: 0.607091 average: 0.000772528
ExecutionTime = 39.12 s  ClockTime = 39 s

forceCoeffs forceCoeffs1 write:
    Coefficient	Total	Pressure	Viscous	Internal
    Cd:	0.00589906	-0.00296485	0.0088639	0
    Cd(f):	0.00412876	-0.000306889	0.00443565	0
    Cd(r):	0.0017703	-0.00265796	0.00442826	0
    Cl:	-0.00235846	-0.00235107	-7.38584e-06	0
    Cl(f):	-8.93723e-05	-8.70925e-05	-2.27985e-06	0
    Cl(r):	-0.00226908	-0.00226398	-5.10599e-06	0
    CmPitch:	0.00108986	0.00108844	1.41307e-06	0
    CmRoll:	0.00117923	0.00117554	3.69292e-06	0
    CmYaw:	0.00294953	-0.00148242	0.00443195	0
    Cs:	7.91839e-23	1.12045e-22	-3.28611e-23	0
    Cs(f):	0.00294953	-0.00148242	0.00443195	0
    Cs(r):	-0.00294953	0.00148242	-0.00443195	0

    writing force and moment coefficient files.

Time = 31

smoothSolver:  Solving for Ux, Initial residual = 0.000970929, Final residual = 4.83547e-05, No Iterations 2
smoothSolver:  Solving for Uy, Initial residual = 0.00328276, Final residual = 0.000151097, No Iterations 2
GAMG:  Solving for p, Initial residual = 0.165228, Final residual = 0.00780938, No Iterations 8
GAMG:  Solving for p, Initial residual = 0.0438171, Final residual = 0.00215892, No Iterations 16
GAMG:  Solving for p, Initial residual = 0.0258074, Final residual = 0.00109315, No Iterations 15
GAMG:  Solving for p, Initial residual = 0.0160992, Final residual = 0.000764259, No Iterations 16
time step continuity errors : sum local = 1.54006e-05, global = 3.67022e-07, cumulative = 4.13125e-06
smoothSolver:  Solving for omega, Initial residual = 4.29715e-05, Final residual = 5.38986e-07, No Iterations 4
bounding omega, min: -5.13663 max: 57509.1 average: 163.223
smoothSolver:  Solving for k, Initial residual = 0.000443873, Final residual = 2.73132e-05, No Iterations 2
bounding k, min: -0.000519083 max: 0.647072 average: 0.000871285
ExecutionTime = 40.15 s  ClockTime = 40 s

forceCoeffs forceCoeffs1 write:
    Coefficient	Total	Pressure	Viscous	Internal
    Cd:	0.00292565	-0.00582519	0.00875085	0
    Cd(f):	0.00148291	-0.00289609	0.004379	0
    Cd(r):	0.00144274	-0.0029291	0.00437184	0
    Cl:	-4.01722e-05	-3.3012e-05	-7.16015e-06	0
    Cl(f):	-0.000171913	-0.000169761	-2.15178e-06	0
    Cl(r):	0.000131741	0.000136749	-5.00837e-06	0
    CmPitch:	-0.000151827	-0.000153255	1.42829e-06	0
    CmRoll:	2.00861e-05	1.6506e-05	3.58007e-06	0
    CmYaw:	0.00146283	-0.0029126	0.00437542	0
    Cs:	7.19448e-23	1.0391e-22	-3.19654e-23	0
    Cs(f):	0.00146283	-0.0029126	0.00437542	0
    Cs(r):	-0.00146283	0.0029126	-0.00437542	0

    writing force and moment coefficient files.

Time = 32

smoothSolver:  Solving for Ux, Initial residual = 0.000836742, Final residual = 4.13871e-05, No Iterations 2
smoothSolver:  Solving for Uy, Initial residual = 0.00298485, Final residual = 0.000135817, No Iterations 2
GAMG:  Solving for p, Initial residual = 0.118597, Final residual = 0.00576653, No Iterations 8
GAMG:  Solving for p, Initial residual = 0.0331271, Final residual = 0.00159141, No Iterations 17
GAMG:  Solving for p, Initial residual = 0.0183739, Final residual = 0.000910491, No Iterations 15
GAMG:  Solving for p, Initial residual = 0.0118258, Final residual = 0.000530975, No Iterations 17
time step continuity errors : sum local = 1.32088e-05, global = 3.17445e-07, cumulative = 4.44869e-06
smoothSolver:  Solving for omega, Initial residual = 4.11434e-05, Final residual = 5.3423e-07, No Iterations 4
bounding omega, min: -5.25925 max: 57435.1 average: 165.497
smoothSolver:  Solving for k, Initial residual = 0.000414986, Final residual = 2.71693e-05, No Iterations 2
bounding k, min: -7.60957e-05 max: 0.68215 average: 0.000980306
ExecutionTime = 41.11 s  ClockTime = 41 s

forceCoeffs forceCoeffs1 write:
    Coefficient	Total	Pressure	Viscous	Internal
    Cd:	0.00359292	-0.0050536	0.00864652	0
    Cd(f):	0.000743611	-0.00358287	0.00432648	0
    Cd(r):	0.00284931	-0.00147073	0.00432004	0
    Cl:	0.0021057	0.00211214	-6.44111e-06	0
    Cl(f):	-0.000167724	-0.000165731	-1.99292e-06	0
    Cl(r):	0.00227342	0.00227787	-4.44819e-06	0
    CmPitch:	-0.00122057	-0.0012218	1.22764e-06	0
    CmRoll:	-0.00105285	-0.00105607	3.22055e-06	0
    CmYaw:	0.00179646	-0.0025268	0.00432326	0
    Cs:	7.23009e-23	1.03647e-22	-3.13459e-23	0
    Cs(f):	0.00179646	-0.0025268	0.00432326	0
    Cs(r):	-0.00179646	0.0025268	-0.00432326	0

    writing force and moment coefficient files.

Time = 33

smoothSolver:  Solving for Ux, Initial residual = 0.000671689, Final residual = 3.40877e-05, No Iterations 2
smoothSolver:  Solving for Uy, Initial residual = 0.00269124, Final residual = 0.000121602, No Iterations 2
GAMG:  Solving for p, Initial residual = 0.0822651, Final residual = 0.00354012, No Iterations 9
GAMG:  Solving for p, Initial residual = 0.024863, Final residual = 0.00114862, No Iterations 17
GAMG:  Solving for p, Initial residual = 0.0139504, Final residual = 0.000578776, No Iterations 16
GAMG:  Solving for p, Initial residual = 0.00912344, Final residual = 0.000411253, No Iterations 16
time step continuity errors : sum local = 1.12886e-05, global = 2.52558e-07, cumulative = 4.70125e-06
smoothSolver:  Solving for omega, Initial residual = 3.94823e-05, Final residual = 5.06168e-07, No Iterations 4
bounding omega, min: -7.2823 max: 57406.6 average: 167.693
smoothSolver:  Solving for k, Initial residual = 0.000415021, Final residual = 2.79831e-05, No Iterations 2
bounding k, min: -0.000651316 max: 0.722932 average: 0.0011029
ExecutionTime = 42.21 s  ClockTime = 42 s

forceCoeffs forceCoeffs1 write:
    Coefficient	Total	Pressure	Viscous	Internal
    Cd:	0.00619303	-0.00235979	0.00855282	0
    Cd(f):	0.0014765	-0.00280176	0.00427826	0
    Cd(r):	0.00471653	0.000441971	0.00427456	0
    Cl:	0.00324002	0.00324373	-3.70697e-06	0
    Cl(f):	-0.000115924	-0.000114958	-9.66218e-07	0
    Cl(r):	0.00335595	0.00335869	-2.74076e-06	0
    CmPitch:	-0.00173594	-0.00173682	8.87269e-07	0
    CmRoll:	-0.00162001	-0.00162186	1.85349e-06	0
    CmYaw:	0.00309652	-0.00117989	0.00427641	0
    Cs:	7.52317e-23	1.08459e-22	-3.32269e-23	0
    Cs(f):	0.00309652	-0.00117989	0.00427641	0
    Cs(r):	-0.00309652	0.00117989	-0.00427641	0

    writing force and moment coefficient files.

Time = 34

smoothSolver:  Solving for Ux, Initial residual = 0.000572132, Final residual = 2.94846e-05, No Iterations 2
smoothSolver:  Solving for Uy, Initial residual = 0.0025294, Final residual = 0.000112907, No Iterations 2
GAMG:  Solving for p, Initial residual = 0.0626196, Final residual = 0.00261197, No Iterations 8
GAMG:  Solving for p, Initial residual = 0.02052, Final residual = 0.000919026, No Iterations 16
GAMG:  Solving for p, Initial residual = 0.0119561, Final residual = 0.000545762, No Iterations 14
GAMG:  Solving for p, Initial residual = 0.00808097, Final residual = 0.000370668, No Iterations 15
time step continuity errors : sum local = 9.73486e-06, global = 2.00963e-07, cumulative = 4.90221e-06
smoothSolver:  Solving for omega, Initial residual = 3.8678e-05, Final residual = 5.15971e-07, No Iterations 4
bounding omega, min: -2.14642 max: 57412.8 average: 169.849
smoothSolver:  Solving for k, Initial residual = 0.000440002, Final residual = 3.04723e-05, No Iterations 2
bounding k, min: -0.00036971 max: 0.748765 average: 0.00124284
ExecutionTime = 43.38 s  ClockTime = 43 s

forceCoeffs forceCoeffs1 write:
    Coefficient	Total	Pressure	Viscous	Internal
    Cd:	0.0091791	0.000706869	0.00847223	0
    Cd(f):	0.00286661	-0.00136975	0.00423636	0
    Cd(r):	0.00631249	0.00207662	0.00423587	0
    Cl:	0.00344588	0.00344637	-4.87596e-07	0
    Cl(f):	-5.7282e-05	-5.75476e-05	2.65574e-07	0
    Cl(r):	0.00350316	0.00350391	-7.5317e-07	0
    CmPitch:	-0.00178022	-0.00178073	5.09372e-07	0
    CmRoll:	-0.00172294	-0.00172318	2.43798e-07	0
    CmYaw:	0.00458955	0.000353434	0.00423612	0
    Cs:	8.42397e-23	1.15772e-22	-3.15321e-23	0
    Cs(f):	0.00458955	0.000353434	0.00423612	0
    Cs(r):	-0.00458955	-0.000353434	-0.00423612	0

    writing force and moment coefficient files.

Time = 35

smoothSolver:  Solving for Ux, Initial residual = 0.000567511, Final residual = 2.87294e-05, No Iterations 2
smoothSolver:  Solving for Uy, Initial residual = 0.00249272, Final residual = 0.000110759, No Iterations 2
