/*---------------------------------------------------------------------------*\
| =========                 |                                                 |
| \\      /  F ield         | OpenFOAM: The Open Source CFD Toolbox           |
|  \\    /   O peration     | Version:  2212                                  |
|   \\  /    A nd           | Website:  www.openfoam.com                      |
|    \\/     M anipulation  |                                                 |
\*---------------------------------------------------------------------------*/
Build  : _70874860-20230612 OPENFOAM=2212 patch=230612 version=2212
Arch   : "LSB;label=32;scalar=64"
Exec   : simpleFoam
Date   : Nov 27 2023
Time   : 14:58:58
Host   : maciek-gv62-7rc
PID    : 97070
I/O    : uncollated
Case   : /home/maciek/repository/airSupport/run/NACA0021__AoA0_k-omega
nProcs : 1
trapFpe: Floating point exception trapping enabled (FOAM_SIGFPE).
fileModificationChecking : Monitoring run-time modified files using timeStampMaster (fileModificationSkew 5, maxFileModificationPolls 20)
allowSystemOperations : Allowing user-supplied system call operations

// * * * * * * * * * * * * * * * * * * * * * * * * * * * * * * * * * * * * * //
Create time

Create mesh for time = 0


SIMPLE: convergence criteria
    field U	 tolerance 0.0001
    field p	 tolerance 0.001
    field "(k|epsilon|omega)"	 tolerance 0.001

Reading field p

Reading field U

Reading/calculating face flux field phi

Selecting incompressible transport model Newtonian
Selecting turbulence model type RAS
Selecting RAS turbulence model kOmega
bounding k, min: 0 max: 0 average: 0
RAS
{
    RASModel        kOmega;
    turbulence      on;
    printCoeffs     on;
    betaStar        0.09;
    beta            0.072;
    gamma           0.52;
    alphaK          0.5;
    alphaOmega      0.5;
}

No MRF models present

No finite volume options present

Starting time loop

forceCoeffs forceCoeffs1:
    rho: rhoInf
    Freestream density (rhoInf) set to 1
    Not including porosity effects
    magUInf: 10
    lRef   : 1
    Aref   : 1
    rhoInf : 1
    Selecting all coefficients
    - Drag force: Cd
    - Drag force front: Cd(f)
    - Drag force rear: Cd(r)
    - Lift force: Cl
    - Lift force front: Cl(f)
    - Lift force rear: Cl(r)
    - Pitch moment: CmPitch
    - Roll moment: CmRoll
    - Yaw moment: CmYaw
    - Side force: Cs
    - Side force front: Cs(f)
    - Side force rear: Cs(r)


Time = 1

smoothSolver:  Solving for Ux, Initial residual = 1, Final residual = 0.0501649, No Iterations 2
smoothSolver:  Solving for Uy, Initial residual = 1, Final residual = 0.0473092, No Iterations 2
GAMG:  Solving for p, Initial residual = 1, Final residual = 0.0445415, No Iterations 38
GAMG:  Solving for p, Initial residual = 0.0001298, Final residual = 4.53023e-06, No Iterations 20
GAMG:  Solving for p, Initial residual = 2.49017e-05, Final residual = 9.2992e-07, No Iterations 22
GAMG:  Solving for p, Initial residual = 8.15842e-06, Final residual = 2.71813e-07, No Iterations 26
time step continuity errors : sum local = 0.000490361, global = 2.01957e-05, cumulative = 2.01957e-05
smoothSolver:  Solving for omega, Initial residual = 0.00262929, Final residual = 0.000223885, No Iterations 2
bounding omega, min: -1077.79 max: 89429.5 average: 114.045
smoothSolver:  Solving for k, Initial residual = 1, Final residual = 0.0578836, No Iterations 2
bounding k, min: -3.31672e-09 max: 1.76457e-07 average: 6.75997e-10
ExecutionTime = 5.47 s  ClockTime = 6 s

forceCoeffs forceCoeffs1 write:
    Coefficient	Total	Pressure	Viscous	Internal
    Cd:	-29.1454	-29.1713	0.0259076	0
    Cd(f):	-14.5707	-14.5836	0.0129538	0
    Cd(r):	-14.5748	-14.5877	0.0129538	0
    Cl:	-0.0040961	-0.00409607	-2.75367e-08	0
    Cl(f):	-0.000335052	-0.000335009	-4.24413e-08	0
    Cl(r):	-0.00376104	-0.00376106	1.49047e-08	0
    CmPitch:	0.001713	0.00171302	-2.8673e-08	0
    CmRoll:	0.00204805	0.00204803	1.37683e-08	0
    CmYaw:	-14.5727	-14.5857	0.0129538	0
    Cs:	9.60977e-20	9.80293e-20	-1.9316e-21	0
    Cs(f):	-14.5727	-14.5857	0.0129538	0
    Cs(r):	14.5727	14.5857	-0.0129538	0

    writing force and moment coefficient files.

Time = 2

smoothSolver:  Solving for Ux, Initial residual = 0.965733, Final residual = 0.0600874, No Iterations 2
smoothSolver:  Solving for Uy, Initial residual = 0.766468, Final residual = 0.046676, No Iterations 2
GAMG:  Solving for p, Initial residual = 0.00471689, Final residual = 0.000177439, No Iterations 5
GAMG:  Solving for p, Initial residual = 0.00035008, Final residual = 1.30268e-05, No Iterations 16
GAMG:  Solving for p, Initial residual = 0.000162463, Final residual = 5.65572e-06, No Iterations 18
GAMG:  Solving for p, Initial residual = 1.8263e-05, Final residual = 9.00532e-07, No Iterations 17
time step continuity errors : sum local = 0.00898846, global = -0.000863988, cumulative = -0.000843792
smoothSolver:  Solving for omega, Initial residual = 0.782764, Final residual = 0.0382502, No Iterations 2
bounding omega, min: -350914 max: 3.12971e+06 average: 1409.89
smoothSolver:  Solving for k, Initial residual = 0.999004, Final residual = 0.0425995, No Iterations 2
bounding k, min: -0.000114185 max: 0.000966301 average: 2.80029e-07
ExecutionTime = 7.51 s  ClockTime = 8 s

forceCoeffs forceCoeffs1 write:
    Coefficient	Total	Pressure	Viscous	Internal
    Cd:	-16.4281	-16.4414	0.01336	0
    Cd(f):	-8.30829	-8.31497	0.00667605	0
    Cd(r):	-8.11978	-8.12647	0.00668395	0
    Cl:	0.188511	0.188503	7.90546e-06	0
    Cl(f):	0.0225483	0.0225453	2.96387e-06	0
    Cl(r):	0.165963	0.165958	4.94159e-06	0
    CmPitch:	-0.0717072	-0.0717062	-9.88862e-07	0
    CmRoll:	-0.0942555	-0.0942516	-3.95273e-06	0
    CmYaw:	-8.21404	-8.22072	0.00668	0
    Cs:	7.17558e-20	6.92327e-20	2.52312e-21	0
    Cs(f):	-8.21404	-8.22072	0.00668	0
    Cs(r):	8.21404	8.22072	-0.00668	0

    writing force and moment coefficient files.

Time = 3

smoothSolver:  Solving for Ux, Initial residual = 0.113485, Final residual = 0.00830428, No Iterations 2
smoothSolver:  Solving for Uy, Initial residual = 0.169916, Final residual = 0.0108642, No Iterations 2
GAMG:  Solving for p, Initial residual = 0.716465, Final residual = 0.033874, No Iterations 23
GAMG:  Solving for p, Initial residual = 0.00112287, Final residual = 5.31872e-05, No Iterations 32
GAMG:  Solving for p, Initial residual = 0.000116068, Final residual = 5.54707e-06, No Iterations 40
GAMG:  Solving for p, Initial residual = 2.95944e-05, Final residual = 1.33958e-06, No Iterations 30
time step continuity errors : sum local = 0.0307236, global = -0.00101318, cumulative = -0.00185697
smoothSolver:  Solving for omega, Initial residual = 0.272326, Final residual = 0.0191582, No Iterations 2
bounding omega, min: -213629 max: 2.63232e+06 average: 1636.09
smoothSolver:  Solving for k, Initial residual = 0.318534, Final residual = 0.0232636, No Iterations 2
bounding k, min: -0.00119849 max: 0.24345 average: 6.01315e-06
ExecutionTime = 11.11 s  ClockTime = 11 s

forceCoeffs forceCoeffs1 write:
    Coefficient	Total	Pressure	Viscous	Internal
    Cd:	111.026	111.005	0.0212539	0
    Cd(f):	60.5355	60.5248	0.010699	0
    Cd(r):	50.4904	50.4798	0.0105549	0
    Cl:	-10.0451	-10.045	-0.00014409	0
    Cl(f):	0.132299	0.132363	-6.47579e-05	0
    Cl(r):	-10.1774	-10.1773	-7.93322e-05	0
    CmPitch:	5.15485	5.15484	7.28715e-06	0
    CmRoll:	5.02255	5.02248	7.2045e-05	0
    CmYaw:	55.5129	55.5023	0.010627	0
    Cs:	-2.14112e-18	-2.50093e-18	3.59808e-19	0
    Cs(f):	55.5129	55.5023	0.010627	0
    Cs(r):	-55.5129	-55.5023	-0.010627	0

    writing force and moment coefficient files.

Time = 4

smoothSolver:  Solving for Ux, Initial residual = 0.0956403, Final residual = 0.00726637, No Iterations 2
smoothSolver:  Solving for Uy, Initial residual = 0.132085, Final residual = 0.00892136, No Iterations 2
GAMG:  Solving for p, Initial residual = 0.350907, Final residual = 0.0152151, No Iterations 17
GAMG:  Solving for p, Initial residual = 0.00257936, Final residual = 0.000120389, No Iterations 34
GAMG:  Solving for p, Initial residual = 0.00028109, Final residual = 1.30753e-05, No Iterations 50
GAMG:  Solving for p, Initial residual = 7.30382e-05, Final residual = 3.62896e-06, No Iterations 32
time step continuity errors : sum local = 0.0278487, global = -0.000195745, cumulative = -0.00205272
smoothSolver:  Solving for omega, Initial residual = 0.163812, Final residual = 0.00516836, No Iterations 2
bounding omega, min: -11567.1 max: 1.38394e+06 average: 1736.99
smoothSolver:  Solving for k, Initial residual = 0.0358965, Final residual = 0.000560049, No Iterations 4
bounding k, min: -0.00110074 max: 0.267218 average: 5.19687e-05
ExecutionTime = 15.11 s  ClockTime = 15 s

forceCoeffs forceCoeffs1 write:
    Coefficient	Total	Pressure	Viscous	Internal
    Cd:	260.387	260.356	0.0312215	0
    Cd(f):	54.3444	54.3291	0.0153428	0
    Cd(r):	206.043	206.027	0.0158787	0
    Cl:	151.698	151.698	0.000535906	0
    Cl(f):	2.7494	2.74917	0.000223364	0
    Cl(r):	148.949	148.949	0.000312542	0
    CmPitch:	-73.0998	-73.0998	-4.45892e-05	0
    CmRoll:	-75.8492	-75.849	-0.000267953	0
    CmYaw:	130.194	130.178	0.0156108	0
    Cs:	-1.07972e-17	-1.11332e-17	3.35968e-19	0
    Cs(f):	130.194	130.178	0.0156108	0
    Cs(r):	-130.194	-130.178	-0.0156108	0

    writing force and moment coefficient files.

Time = 5

smoothSolver:  Solving for Ux, Initial residual = 0.0840604, Final residual = 0.00184948, No Iterations 4
smoothSolver:  Solving for Uy, Initial residual = 0.216197, Final residual = 0.0153555, No Iterations 2
GAMG:  Solving for p, Initial residual = 0.153683, Final residual = 0.00635544, No Iterations 7
GAMG:  Solving for p, Initial residual = 0.00492264, Final residual = 0.000226345, No Iterations 16
GAMG:  Solving for p, Initial residual = 0.000540886, Final residual = 2.36188e-05, No Iterations 14
GAMG:  Solving for p, Initial residual = 0.000224795, Final residual = 1.01672e-05, No Iterations 14
time step continuity errors : sum local = 0.063739, global = -0.00253013, cumulative = -0.00458285
smoothSolver:  Solving for omega, Initial residual = 0.124753, Final residual = 0.0108033, No Iterations 2
bounding omega, min: -398720 max: 6.03888e+06 average: 2366.54
smoothSolver:  Solving for k, Initial residual = 0.00810267, Final residual = 0.000117767, No Iterations 4
bounding k, min: -0.000842224 max: 0.260704 average: 0.00020347
ExecutionTime = 17.33 s  ClockTime = 17 s

forceCoeffs forceCoeffs1 write:
    Coefficient	Total	Pressure	Viscous	Internal
    Cd:	556.954	556.895	0.0589273	0
    Cd(f):	228.077	228.047	0.0295114	0
    Cd(r):	328.877	328.848	0.0294159	0
    Cl:	100.8	100.8	-9.55666e-05	0
    Cl(f):	7.15452	7.15451	1.25172e-05	0
    Cl(r):	93.6458	93.6459	-0.000108084	0
    CmPitch:	-43.2456	-43.2457	6.03005e-05	0
    CmRoll:	-50.4002	-50.4002	4.77833e-05	0
    CmYaw:	278.477	278.448	0.0294637	0
    Cs:	-1.56612e-17	-1.53094e-17	-3.51734e-19	0
    Cs(f):	278.477	278.448	0.0294637	0
    Cs(r):	-278.477	-278.448	-0.0294637	0

    writing force and moment coefficient files.

Time = 6

smoothSolver:  Solving for Ux, Initial residual = 0.0663452, Final residual = 0.00107399, No Iterations 4
smoothSolver:  Solving for Uy, Initial residual = 0.156224, Final residual = 0.0127062, No Iterations 2
GAMG:  Solving for p, Initial residual = 0.0955723, Final residual = 0.00351811, No Iterations 11
GAMG:  Solving for p, Initial residual = 0.0073939, Final residual = 0.000318502, No Iterations 18
GAMG:  Solving for p, Initial residual = 0.00187753, Final residual = 9.1063e-05, No Iterations 14
GAMG:  Solving for p, Initial residual = 0.000538412, Final residual = 2.53903e-05, No Iterations 14
time step continuity errors : sum local = 0.0258446, global = 0.000539184, cumulative = -0.00404366
smoothSolver:  Solving for omega, Initial residual = 0.161054, Final residual = 0.00844913, No Iterations 2
bounding omega, min: -644992 max: 6.81626e+06 average: 2929.35
smoothSolver:  Solving for k, Initial residual = 0.00334796, Final residual = 4.49596e-05, No Iterations 4
bounding k, min: -0.00458126 max: 0.536944 average: 0.000735807
ExecutionTime = 19.46 s  ClockTime = 20 s

forceCoeffs forceCoeffs1 write:
    Coefficient	Total	Pressure	Viscous	Internal
    Cd:	358.554	358.481	0.0724169	0
    Cd(f):	-0.915305	-0.951007	0.0357018	0
    Cd(r):	359.469	359.432	0.0367151	0
    Cl:	360.384	360.383	0.00101326	0
    Cl(f):	7.61794	7.61744	0.000502759	0
    Cl(r):	352.767	352.766	0.000510502	0
    CmPitch:	-172.574	-172.574	-3.87185e-06	0
    CmRoll:	-180.192	-180.192	-0.000506631	0
    CmYaw:	179.277	179.241	0.0362085	0
    Cs:	-1.05137e-17	-1.10234e-17	5.09736e-19	0
    Cs(f):	179.277	179.241	0.0362085	0
    Cs(r):	-179.277	-179.241	-0.0362085	0

    writing force and moment coefficient files.

Time = 7

smoothSolver:  Solving for Ux, Initial residual = 0.0487914, Final residual = 0.000702157, No Iterations 4
smoothSolver:  Solving for Uy, Initial residual = 0.100888, Final residual = 0.0081403, No Iterations 2
GAMG:  Solving for p, Initial residual = 0.2841, Final residual = 0.0129338, No Iterations 10
GAMG:  Solving for p, Initial residual = 0.0183231, Final residual = 0.000616988, No Iterations 18
GAMG:  Solving for p, Initial residual = 0.00161316, Final residual = 7.63829e-05, No Iterations 12
GAMG:  Solving for p, Initial residual = 0.000557356, Final residual = 2.26144e-05, No Iterations 14
time step continuity errors : sum local = 0.0480934, global = 0.000461379, cumulative = -0.00358228
smoothSolver:  Solving for omega, Initial residual = 0.211219, Final residual = 0.00334339, No Iterations 2
bounding omega, min: -179931 max: 4.07854e+06 average: 3235.41
smoothSolver:  Solving for k, Initial residual = 0.001461, Final residual = 1.82014e-05, No Iterations 4
bounding k, min: -0.00351014 max: 1.24277 average: 0.00190903
ExecutionTime = 21.49 s  ClockTime = 22 s

forceCoeffs forceCoeffs1 write:
    Coefficient	Total	Pressure	Viscous	Internal
    Cd:	88.5168	88.4355	0.0813047	0
    Cd(f):	-89.7631	-89.8027	0.0395575	0
    Cd(r):	178.28	178.238	0.0417472	0
    Cl:	268.043	268.041	0.00218972	0
    Cl(f):	3.96425	3.96326	0.000989339	0
    Cl(r):	264.079	264.078	0.00120038	0
    CmPitch:	-130.057	-130.057	-0.00010552	0
    CmRoll:	-134.021	-134.02	-0.00109486	0
    CmYaw:	44.2584	44.2177	0.0406523	0
    Cs:	-2.50539e-18	-2.4116e-18	-9.37914e-20	0
    Cs(f):	44.2584	44.2177	0.0406523	0
    Cs(r):	-44.2584	-44.2177	-0.0406523	0

    writing force and moment coefficient files.

Time = 8

smoothSolver:  Solving for Ux, Initial residual = 0.0336777, Final residual = 0.000437294, No Iterations 4
smoothSolver:  Solving for Uy, Initial residual = 0.0811152, Final residual = 0.00771284, No Iterations 2
GAMG:  Solving for p, Initial residual = 0.401929, Final residual = 0.0172349, No Iterations 6
GAMG:  Solving for p, Initial residual = 0.0125933, Final residual = 0.000585094, No Iterations 16
GAMG:  Solving for p, Initial residual = 0.00107634, Final residual = 4.9306e-05, No Iterations 14
GAMG:  Solving for p, Initial residual = 0.000362531, Final residual = 1.61797e-05, No Iterations 10
time step continuity errors : sum local = 0.0671285, global = 0.00107979, cumulative = -0.0025025
smoothSolver:  Solving for omega, Initial residual = 0.144921, Final residual = 0.00674138, No Iterations 2
bounding omega, min: -220754 max: 9.1701e+06 average: 3531.18
smoothSolver:  Solving for k, Initial residual = 0.000693786, Final residual = 5.66605e-05, No Iterations 2
bounding k, min: -0.0142942 max: 2.37753 average: 0.00354564
ExecutionTime = 23.27 s  ClockTime = 23 s

forceCoeffs forceCoeffs1 write:
    Coefficient	Total	Pressure	Viscous	Internal
    Cd:	-152.086	-152.163	0.0774198	0
    Cd(f):	-112.481	-112.518	0.0371645	0
    Cd(r):	-39.605	-39.6452	0.0402553	0
    Cl:	72.8761	72.873	0.00309082	0
    Cl(f):	2.38408	2.3828	0.00128019	0
    Cl(r):	70.4921	70.4903	0.00181063	0
    CmPitch:	-34.054	-34.0537	-0.00026522	0
    CmRoll:	-36.4381	-36.4365	-0.00154541	0
    CmYaw:	-76.043	-76.0817	0.0387099	0
    Cs:	3.32109e-18	3.30806e-18	1.30263e-20	0
    Cs(f):	-76.043	-76.0817	0.0387099	0
    Cs(r):	76.043	76.0817	-0.0387099	0

    writing force and moment coefficient files.

Time = 9

smoothSolver:  Solving for Ux, Initial residual = 0.027794, Final residual = 0.00259009, No Iterations 2
smoothSolver:  Solving for Uy, Initial residual = 0.0747301, Final residual = 0.0071909, No Iterations 2
GAMG:  Solving for p, Initial residual = 0.46354, Final residual = 0.0176145, No Iterations 8
GAMG:  Solving for p, Initial residual = 0.0193074, Final residual = 0.000791429, No Iterations 18
GAMG:  Solving for p, Initial residual = 0.00220161, Final residual = 8.67956e-05, No Iterations 12
GAMG:  Solving for p, Initial residual = 0.000362862, Final residual = 1.24092e-05, No Iterations 14
time step continuity errors : sum local = 0.0181854, global = 0.000228526, cumulative = -0.00227397
smoothSolver:  Solving for omega, Initial residual = 0.297587, Final residual = 0.000770767, No Iterations 2
bounding omega, min: -165587 max: 4.59484e+06 average: 3680.89
smoothSolver:  Solving for k, Initial residual = 0.000422052, Final residual = 3.58594e-05, No Iterations 2
bounding k, min: -0.0159163 max: 3.68204 average: 0.00488803
ExecutionTime = 25.36 s  ClockTime = 25 s

forceCoeffs forceCoeffs1 write:
    Coefficient	Total	Pressure	Viscous	Internal
    Cd:	-149.886	-149.954	0.0677962	0
    Cd(f):	-106.577	-106.609	0.0318941	0
    Cd(r):	-43.3093	-43.3452	0.0359021	0
    Cl:	63.2673	63.2633	0.00400796	0
    Cl(f):	3.46167	3.46017	0.00149797	0
    Cl(r):	59.8057	59.8032	0.00250999	0
    CmPitch:	-28.172	-28.1715	-0.000506011	0
    CmRoll:	-31.6337	-31.6317	-0.00200398	0
    CmYaw:	-74.943	-74.9769	0.0338981	0
    Cs:	5.48577e-18	5.21512e-18	2.70652e-19	0
    Cs(f):	-74.943	-74.9769	0.0338981	0
    Cs(r):	74.943	74.9769	-0.0338981	0

    writing force and moment coefficient files.

Time = 10

smoothSolver:  Solving for Ux, Initial residual = 0.0270673, Final residual = 0.00255077, No Iterations 2
smoothSolver:  Solving for Uy, Initial residual = 0.0843075, Final residual = 0.00726239, No Iterations 2
GAMG:  Solving for p, Initial residual = 0.400133, Final residual = 0.0180473, No Iterations 5
GAMG:  Solving for p, Initial residual = 0.0253425, Final residual = 0.00100381, No Iterations 22
GAMG:  Solving for p, Initial residual = 0.00422538, Final residual = 0.000159115, No Iterations 14
GAMG:  Solving for p, Initial residual = 0.00103012, Final residual = 4.36613e-05, No Iterations 12
time step continuity errors : sum local = 0.0361054, global = -0.000860548, cumulative = -0.00313452
smoothSolver:  Solving for omega, Initial residual = 0.227261, Final residual = 0.00160531, No Iterations 2
bounding omega, min: -66314.6 max: 3.18124e+06 average: 3763.15
smoothSolver:  Solving for k, Initial residual = 0.000341114, Final residual = 3.02787e-05, No Iterations 2
bounding k, min: -0.00960434 max: 3.96666 average: 0.00585221
ExecutionTime = 27.51 s  ClockTime = 28 s

forceCoeffs forceCoeffs1 write:
    Coefficient	Total	Pressure	Viscous	Internal
    Cd:	85.1773	85.1088	0.0684973	0
    Cd(f):	-94.5951	-94.6265	0.031386	0
    Cd(r):	179.772	179.735	0.0371113	0
    Cl:	274.367	274.362	0.00572527	0
    Cl(f):	5.09074	5.0886	0.00213822	0
    Cl(r):	269.277	269.273	0.00358706	0
    CmPitch:	-132.093	-132.092	-0.000724421	0
    CmRoll:	-137.184	-137.181	-0.00286264	0
    CmYaw:	42.5887	42.5544	0.0342486	0
    Cs:	3.43082e-18	3.09138e-18	3.39441e-19	0
    Cs(f):	42.5887	42.5544	0.0342486	0
    Cs(r):	-42.5887	-42.5544	-0.0342486	0

    writing force and moment coefficient files.

Time = 11

smoothSolver:  Solving for Ux, Initial residual = 0.0249255, Final residual = 0.00212215, No Iterations 2
smoothSolver:  Solving for Uy, Initial residual = 0.0861195, Final residual = 0.00697916, No Iterations 2
GAMG:  Solving for p, Initial residual = 0.465358, Final residual = 0.0221889, No Iterations 5
GAMG:  Solving for p, Initial residual = 0.0245455, Final residual = 0.00106223, No Iterations 16
GAMG:  Solving for p, Initial residual = 0.00254155, Final residual = 0.000113518, No Iterations 14
GAMG:  Solving for p, Initial residual = 0.000536587, Final residual = 1.82387e-05, No Iterations 14
time step continuity errors : sum local = 0.0223375, global = -0.000592257, cumulative = -0.00372677
smoothSolver:  Solving for omega, Initial residual = 0.146399, Final residual = 0.00245869, No Iterations 2
bounding omega, min: -3341.14 max: 1.60795e+06 average: 3719.47
smoothSolver:  Solving for k, Initial residual = 0.000296086, Final residual = 2.62004e-05, No Iterations 2
bounding k, min: -0.0578757 max: 4.68234 average: 0.00695723
ExecutionTime = 29.46 s  ClockTime = 30 s

forceCoeffs forceCoeffs1 write:
    Coefficient	Total	Pressure	Viscous	Internal
    Cd:	307.213	307.135	0.0783851	0
    Cd(f):	-71.2969	-71.3321	0.0352581	0
    Cd(r):	378.51	378.467	0.0431269	0
    Cl:	449.807	449.799	0.00786879	0
    Cl(f):	8.66715	8.66416	0.00298636	0
    Cl(r):	441.14	441.135	0.00488243	0
    CmPitch:	-216.236	-216.235	-0.000948037	0
    CmRoll:	-224.903	-224.899	-0.00393439	0
    CmYaw:	153.607	153.567	0.0391925	0
    Cs:	-5.14562e-19	-5.10212e-19	-4.34964e-21	0
    Cs(f):	153.607	153.567	0.0391925	0
    Cs(r):	-153.607	-153.567	-0.0391925	0

    writing force and moment coefficient files.

Time = 12

smoothSolver:  Solving for Ux, Initial residual = 0.0218184, Final residual = 0.001732, No Iterations 2
smoothSolver:  Solving for Uy, Initial residual = 0.0788205, Final residual = 0.00662227, No Iterations 2
GAMG:  Solving for p, Initial residual = 0.539288, Final residual = 0.0231033, No Iterations 5
GAMG:  Solving for p, Initial residual = 0.017531, Final residual = 0.000781128, No Iterations 16
GAMG:  Solving for p, Initial residual = 0.00166081, Final residual = 6.83219e-05, No Iterations 14
GAMG:  Solving for p, Initial residual = 0.000286679, Final residual = 8.6111e-06, No Iterations 14
time step continuity errors : sum local = 0.0110614, global = -6.88049e-05, cumulative = -0.00379558
smoothSolver:  Solving for omega, Initial residual = 0.0859986, Final residual = 0.00296036, No Iterations 2
bounding omega, min: -1544.8 max: 1.07395e+06 average: 3686.54
smoothSolver:  Solving for k, Initial residual = 0.000284376, Final residual = 3.45848e-06, No Iterations 4
bounding k, min: -0.0136324 max: 5.46556 average: 0.00854862
ExecutionTime = 31.39 s  ClockTime = 31 s

forceCoeffs forceCoeffs1 write:
    Coefficient	Total	Pressure	Viscous	Internal
    Cd:	387.367	387.269	0.0985172	0
    Cd(f):	-45.6153	-45.6596	0.044241	0
    Cd(r):	432.983	432.928	0.0542761	0
    Cl:	478.598	478.588	0.0100351	0
    Cl(f):	12.2157	12.2117	0.00400522	0
    Cl(r):	466.382	466.376	0.00602989	0
    CmPitch:	-227.083	-227.082	-0.00101233	0
    CmRoll:	-239.299	-239.294	-0.00501756	0
    CmYaw:	193.684	193.634	0.0492586	0
    Cs:	-3.31997e-18	-3.3454e-18	2.54244e-20	0
    Cs(f):	193.684	193.634	0.0492586	0
    Cs(r):	-193.684	-193.634	-0.0492586	0

    writing force and moment coefficient files.

Time = 13

smoothSolver:  Solving for Ux, Initial residual = 0.0197, Final residual = 0.00157628, No Iterations 2
smoothSolver:  Solving for Uy, Initial residual = 0.0619532, Final residual = 0.00522793, No Iterations 2
GAMG:  Solving for p, Initial residual = 0.391283, Final residual = 0.0180394, No Iterations 5
GAMG:  Solving for p, Initial residual = 0.0190447, Final residual = 0.000871832, No Iterations 18
GAMG:  Solving for p, Initial residual = 0.00177168, Final residual = 8.03234e-05, No Iterations 12
GAMG:  Solving for p, Initial residual = 0.000268721, Final residual = 1.27132e-05, No Iterations 12
time step continuity errors : sum local = 0.0131461, global = -0.00045735, cumulative = -0.00425293
smoothSolver:  Solving for omega, Initial residual = 0.0639941, Final residual = 0.00305899, No Iterations 2
bounding omega, min: -296310 max: 5.36541e+06 average: 3720.45
smoothSolver:  Solving for k, Initial residual = 0.000274699, Final residual = 3.52187e-06, No Iterations 4
bounding k, min: -0.0258473 max: 6.64121 average: 0.010761
ExecutionTime = 33.28 s  ClockTime = 33 s

forceCoeffs forceCoeffs1 write:
    Coefficient	Total	Pressure	Viscous	Internal
    Cd:	311.365	311.242	0.122402	0
    Cd(f):	-26.5842	-26.6398	0.055566	0
    Cd(r):	337.949	337.882	0.0668358	0
    Cl:	364.533	364.522	0.0112698	0
    Cl(f):	13.2245	13.22	0.00458832	0
    Cl(r):	351.309	351.302	0.00668149	0
    CmPitch:	-169.042	-169.041	-0.00104658	0
    CmRoll:	-182.267	-182.261	-0.00563491	0
    CmYaw:	155.682	155.621	0.0612009	0
    Cs:	-4.56988e-18	-4.60736e-18	3.74768e-20	0
    Cs(f):	155.682	155.621	0.0612009	0
    Cs(r):	-155.682	-155.621	-0.0612009	0

    writing force and moment coefficient files.

Time = 14

smoothSolver:  Solving for Ux, Initial residual = 0.0179731, Final residual = 0.00155552, No Iterations 2
smoothSolver:  Solving for Uy, Initial residual = 0.0482465, Final residual = 0.00384846, No Iterations 2
GAMG:  Solving for p, Initial residual = 0.328704, Final residual = 0.0137585, No Iterations 5
GAMG:  Solving for p, Initial residual = 0.0161741, Final residual = 0.000595013, No Iterations 28
GAMG:  Solving for p, Initial residual = 0.00261164, Final residual = 9.37769e-05, No Iterations 12
GAMG:  Solving for p, Initial residual = 0.000618569, Final residual = 2.11311e-05, No Iterations 16
time step continuity errors : sum local = 0.0145076, global = 0.000221924, cumulative = -0.00403101
smoothSolver:  Solving for omega, Initial residual = 0.0826136, Final residual = 0.00306798, No Iterations 2
bounding omega, min: -13008.3 max: 2.73247e+06 average: 3688.01
smoothSolver:  Solving for k, Initial residual = 0.000257765, Final residual = 3.06899e-06, No Iterations 4
bounding k, min: -0.000351115 max: 8.32759 average: 0.0136605
ExecutionTime = 35.54 s  ClockTime = 36 s

forceCoeffs forceCoeffs1 write:
    Coefficient	Total	Pressure	Viscous	Internal
    Cd:	139.04	138.897	0.142809	0
    Cd(f):	-5.02568	-5.09134	0.065663	0
    Cd(r):	144.066	143.989	0.0771464	0
    Cl:	149.091	149.08	0.0114833	0
    Cl(f):	11.0963	11.0917	0.00464952	0
    Cl(r):	137.995	137.988	0.00683379	0
    CmPitch:	-63.4494	-63.4483	-0.00109214	0
    CmRoll:	-74.5457	-74.54	-0.00574165	0
    CmYaw:	69.52	69.4486	0.0714047	0
    Cs:	-4.23183e-18	-4.16803e-18	-6.37964e-20	0
    Cs(f):	69.52	69.4486	0.0714047	0
    Cs(r):	-69.52	-69.4486	-0.0714047	0

    writing force and moment coefficient files.

Time = 15

smoothSolver:  Solving for Ux, Initial residual = 0.0172409, Final residual = 0.00155326, No Iterations 2
smoothSolver:  Solving for Uy, Initial residual = 0.0420189, Final residual = 0.0031954, No Iterations 2
GAMG:  Solving for p, Initial residual = 0.324701, Final residual = 0.0120873, No Iterations 5
GAMG:  Solving for p, Initial residual = 0.0177056, Final residual = 0.000594302, No Iterations 20
GAMG:  Solving for p, Initial residual = 0.00369222, Final residual = 0.00012511, No Iterations 12
GAMG:  Solving for p, Initial residual = 0.000942865, Final residual = 4.25849e-05, No Iterations 12
time step continuity errors : sum local = 0.0200755, global = 0.000359183, cumulative = -0.00367182
smoothSolver:  Solving for omega, Initial residual = 0.053729, Final residual = 0.00298202, No Iterations 2
bounding omega, min: -988.859 max: 1.42781e+06 average: 3659.05
smoothSolver:  Solving for k, Initial residual = 0.000227366, Final residual = 2.56165e-06, No Iterations 4
bounding k, min: -0.00034126 max: 10.2543 average: 0.0170225
ExecutionTime = 37.42 s  ClockTime = 38 s

forceCoeffs forceCoeffs1 write:
    Coefficient	Total	Pressure	Viscous	Internal
    Cd:	-29.5766	-29.7312	0.15464	0
    Cd(f):	5.81195	5.74025	0.0716986	0
    Cd(r):	-35.3886	-35.4715	0.0829411	0
    Cl:	-41.2005	-41.2118	0.0112425	0
    Cl(f):	5.998	5.99359	0.00441468	0
    Cl(r):	-47.1985	-47.2053	0.00682783	0
    CmPitch:	26.5983	26.5995	-0.00120657	0
    CmRoll:	20.6003	20.6059	-0.00562126	0
    CmYaw:	-14.7883	-14.8656	0.0773198	0
    Cs:	-2.64785e-18	-2.66755e-18	1.96974e-20	0
    Cs(f):	-14.7883	-14.8656	0.0773198	0
    Cs(r):	14.7883	14.8656	-0.0773198	0

    writing force and moment coefficient files.

Time = 16

smoothSolver:  Solving for Ux, Initial residual = 0.0158354, Final residual = 0.0013539, No Iterations 2
smoothSolver:  Solving for Uy, Initial residual = 0.039194, Final residual = 0.00296336, No Iterations 2
GAMG:  Solving for p, Initial residual = 0.361446, Final residual = 0.0133849, No Iterations 5
GAMG:  Solving for p, Initial residual = 0.0233953, Final residual = 0.000833303, No Iterations 18
GAMG:  Solving for p, Initial residual = 0.00198063, Final residual = 8.43193e-05, No Iterations 12
GAMG:  Solving for p, Initial residual = 0.000453568, Final residual = 1.60105e-05, No Iterations 16
time step continuity errors : sum local = 0.00944634, global = 0.000177454, cumulative = -0.00349437
smoothSolver:  Solving for omega, Initial residual = 0.0429538, Final residual = 0.0024674, No Iterations 2
bounding omega, min: -623.774 max: 780732 average: 3613.33
smoothSolver:  Solving for k, Initial residual = 0.000184892, Final residual = 1.84116e-05, No Iterations 2
bounding k, min: -0.00058637 max: 12.2467 average: 0.0201089
ExecutionTime = 39.5 s  ClockTime = 40 s

forceCoeffs forceCoeffs1 write:
    Coefficient	Total	Pressure	Viscous	Internal
    Cd:	-114.164	-114.321	0.157852	0
    Cd(f):	3.50626	3.43257	0.0736912	0
    Cd(r):	-117.67	-117.754	0.0841605	0
    Cl:	-121.176	-121.187	0.0104692	0
    Cl(f):	1.03354	1.02969	0.00384429	0
    Cl(r):	-122.21	-122.216	0.00662493	0
    CmPitch:	61.6216	61.623	-0.00139032	0
    CmRoll:	60.588	60.5933	-0.00523461	0
    CmYaw:	-57.0818	-57.1607	0.0789258	0
    Cs:	-1.03096e-18	-1.03537e-18	4.40969e-21	0
    Cs(f):	-57.0818	-57.1607	0.0789258	0
    Cs(r):	57.0818	57.1607	-0.0789258	0

    writing force and moment coefficient files.

Time = 17

smoothSolver:  Solving for Ux, Initial residual = 0.0136497, Final residual = 0.00107901, No Iterations 2
smoothSolver:  Solving for Uy, Initial residual = 0.0368401, Final residual = 0.00271539, No Iterations 2
GAMG:  Solving for p, Initial residual = 0.448337, Final residual = 0.0192353, No Iterations 5
GAMG:  Solving for p, Initial residual = 0.0239592, Final residual = 0.00104797, No Iterations 20
GAMG:  Solving for p, Initial residual = 0.00159826, Final residual = 7.42975e-05, No Iterations 12
GAMG:  Solving for p, Initial residual = 0.000222729, Final residual = 1.02489e-05, No Iterations 14
time step continuity errors : sum local = 0.00580778, global = 0.000197841, cumulative = -0.00329653
smoothSolver:  Solving for omega, Initial residual = 0.0385068, Final residual = 0.00240515, No Iterations 2
bounding omega, min: -124.049 max: 457673 average: 3563.03
smoothSolver:  Solving for k, Initial residual = 0.000150776, Final residual = 1.483e-05, No Iterations 2
bounding k, min: -0.000558023 max: 15.0075 average: 0.0229116
ExecutionTime = 41.93 s  ClockTime = 42 s

forceCoeffs forceCoeffs1 write:
    Coefficient	Total	Pressure	Viscous	Internal
    Cd:	-92.4761	-92.6345	0.158465	0
    Cd(f):	-2.80006	-2.87428	0.074223	0
    Cd(r):	-89.676	-89.7602	0.0842423	0
    Cl:	-86.876	-86.886	0.0100193	0
    Cl(f):	-1.11421	-1.11758	0.0033677	0
    Cl(r):	-85.7617	-85.7684	0.00665161	0
    CmPitch:	42.3238	42.3254	-0.00164195	0
    CmRoll:	43.438	43.443	-0.00500965	0
    CmYaw:	-46.238	-46.3173	0.0792326	0
    Cs:	6.44205e-20	7.1836e-20	-7.41548e-21	0
    Cs(f):	-46.238	-46.3173	0.0792326	0
    Cs(r):	46.238	46.3173	-0.0792326	0

    writing force and moment coefficient files.

Time = 18

smoothSolver:  Solving for Ux, Initial residual = 0.0118018, Final residual = 0.000933656, No Iterations 2
smoothSolver:  Solving for Uy, Initial residual = 0.0347176, Final residual = 0.00256513, No Iterations 2
GAMG:  Solving for p, Initial residual = 0.531998, Final residual = 0.0213759, No Iterations 5
GAMG:  Solving for p, Initial residual = 0.0234092, Final residual = 0.000957884, No Iterations 27
GAMG:  Solving for p, Initial residual = 0.00205358, Final residual = 7.82272e-05, No Iterations 14
GAMG:  Solving for p, Initial residual = 0.000440261, Final residual = 2.15065e-05, No Iterations 12
time step continuity errors : sum local = 0.00884643, global = 8.23667e-05, cumulative = -0.00321416
smoothSolver:  Solving for omega, Initial residual = 0.0345798, Final residual = 0.00207793, No Iterations 2
smoothSolver:  Solving for k, Initial residual = 0.000126942, Final residual = 1.32995e-06, No Iterations 4
bounding k, min: -0.00115879 max: 17.146 average: 0.0257572
ExecutionTime = 44.08 s  ClockTime = 44 s

forceCoeffs forceCoeffs1 write:
    Coefficient	Total	Pressure	Viscous	Internal
    Cd:	-13.2327	-13.3956	0.16291	0
    Cd(f):	-11.7608	-11.8371	0.0762075	0
    Cd(r):	-1.47182	-1.55853	0.0867029	0
    Cl:	10.289	10.2785	0.0104955	0
    Cl(f):	-0.0988568	-0.102192	0.00333476	0
    Cl(r):	10.3879	10.3807	0.00716073	0
    CmPitch:	-5.24337	-5.24145	-0.00191298	0
    CmRoll:	-5.14451	-5.13926	-0.00524774	0
    CmYaw:	-6.61633	-6.69779	0.0814552	0
    Cs:	4.44815e-19	4.39569e-19	5.24673e-21	0
    Cs(f):	-6.61633	-6.69779	0.0814552	0
    Cs(r):	6.61633	6.69779	-0.0814552	0

    writing force and moment coefficient files.

Time = 19

smoothSolver:  Solving for Ux, Initial residual = 0.0106152, Final residual = 0.000830529, No Iterations 2
smoothSolver:  Solving for Uy, Initial residual = 0.0336359, Final residual = 0.00247953, No Iterations 2
GAMG:  Solving for p, Initial residual = 0.475432, Final residual = 0.0149794, No Iterations 5
GAMG:  Solving for p, Initial residual = 0.0185135, Final residual = 0.000883306, No Iterations 21
GAMG:  Solving for p, Initial residual = 0.00243585, Final residual = 0.000107269, No Iterations 12
GAMG:  Solving for p, Initial residual = 0.000520163, Final residual = 1.83999e-05, No Iterations 14
time step continuity errors : sum local = 0.00605124, global = -0.000128966, cumulative = -0.00334313
smoothSolver:  Solving for omega, Initial residual = 0.0310968, Final residual = 0.00199048, No Iterations 2
smoothSolver:  Solving for k, Initial residual = 0.000113696, Final residual = 1.13366e-05, No Iterations 2
bounding k, min: -0.0116399 max: 18.8164 average: 0.0283182
ExecutionTime = 46.12 s  ClockTime = 46 s

forceCoeffs forceCoeffs1 write:
    Coefficient	Total	Pressure	Viscous	Internal
    Cd:	58.3053	58.1339	0.171399	0
    Cd(f):	-16.9108	-16.9906	0.0797997	0
    Cd(r):	75.2161	75.1245	0.0915989	0
    Cl:	92.127	92.1152	0.0117991	0
    Cl(f):	2.47695	2.4732	0.00374622	0
    Cl(r):	89.65	89.642	0.00805293	0
    CmPitch:	-43.5865	-43.5844	-0.00215335	0
    CmRoll:	-46.0635	-46.0576	-0.00589957	0
    CmYaw:	29.1527	29.067	0.0856993	0
    Cs:	2.05155e-19	2.033e-19	1.8551e-21	0
    Cs(f):	29.1527	29.067	0.0856993	0
    Cs(r):	-29.1527	-29.067	-0.0856993	0

    writing force and moment coefficient files.

Time = 20

smoothSolver:  Solving for Ux, Initial residual = 0.00983281, Final residual = 0.000776103, No Iterations 2
smoothSolver:  Solving for Uy, Initial residual = 0.033033, Final residual = 0.00241016, No Iterations 2
GAMG:  Solving for p, Initial residual = 0.478709, Final residual = 0.0107668, No Iterations 5
GAMG:  Solving for p, Initial residual = 0.0112371, Final residual = 0.000396061, No Iterations 18
GAMG:  Solving for p, Initial residual = 0.000975509, Final residual = 3.99557e-05, No Iterations 12
GAMG:  Solving for p, Initial residual = 0.000196198, Final residual = 8.46784e-06, No Iterations 14
time step continuity errors : sum local = 0.00384676, global = -0.000127359, cumulative = -0.00347049
smoothSolver:  Solving for omega, Initial residual = 0.0286891, Final residual = 0.00189203, No Iterations 2
smoothSolver:  Solving for k, Initial residual = 0.000108385, Final residual = 1.16597e-06, No Iterations 4
bounding k, min: -9.77624e-06 max: 21.0558 average: 0.0313262
ExecutionTime = 48.1 s  ClockTime = 48 s

forceCoeffs forceCoeffs1 write:
    Coefficient	Total	Pressure	Viscous	Internal
    Cd:	96.3973	96.2136	0.183638	0
    Cd(f):	-15.3711	-15.4562	0.0851186	0
    Cd(r):	111.768	111.67	0.0985198	0
    Cl:	127.139	127.126	0.0134013	0
    Cl(f):	5.99987	5.99553	0.00433255	0
    Cl(r):	121.14	121.13	0.0090687	0
    CmPitch:	-57.5698	-57.5675	-0.00236808	0
    CmRoll:	-63.5697	-63.563	-0.00670063	0
    CmYaw:	48.1986	48.1068	0.0918192	0
    Cs:	-3.25623e-19	-3.5422e-19	2.85972e-20	0
    Cs(f):	48.1986	48.1068	0.0918192	0
    Cs(r):	-48.1986	-48.1068	-0.0918192	0

    writing force and moment coefficient files.

Time = 21

smoothSolver:  Solving for Ux, Initial residual = 0.00902914, Final residual = 0.000708789, No Iterations 2
smoothSolver:  Solving for Uy, Initial residual = 0.0317745, Final residual = 0.00230143, No Iterations 2
GAMG:  Solving for p, Initial residual = 0.433413, Final residual = 0.0121122, No Iterations 5
GAMG:  Solving for p, Initial residual = 0.0101106, Final residual = 0.000455175, No Iterations 18
GAMG:  Solving for p, Initial residual = 0.000784866, Final residual = 3.19368e-05, No Iterations 14
GAMG:  Solving for p, Initial residual = 0.000115245, Final residual = 4.26404e-06, No Iterations 16
time step continuity errors : sum local = 0.00209393, global = -8.69333e-05, cumulative = -0.00355742
smoothSolver:  Solving for omega, Initial residual = 0.0269977, Final residual = 0.00187939, No Iterations 2
bounding omega, min: -85.9833 max: 382241 average: 3378.06
smoothSolver:  Solving for k, Initial residual = 0.000103086, Final residual = 1.01691e-05, No Iterations 2
bounding k, min: -8.19792e-08 max: 22.4908 average: 0.0342558
ExecutionTime = 50.05 s  ClockTime = 50 s

forceCoeffs forceCoeffs1 write:
    Coefficient	Total	Pressure	Viscous	Internal
    Cd:	91.7818	91.5867	0.195065	0
    Cd(f):	-11.4816	-11.5718	0.0902074	0
    Cd(r):	103.263	103.159	0.104857	0
    Cl:	114.745	114.73	0.0146499	0
    Cl(f):	8.24788	8.24305	0.00483491	0
    Cl(r):	106.497	106.487	0.00981496	0
    CmPitch:	-49.1246	-49.1221	-0.00249002	0
    CmRoll:	-57.3725	-57.3652	-0.00732494	0
    CmYaw:	45.8909	45.7933	0.0975323	0
    Cs:	-9.26692e-19	-9.37184e-19	1.04924e-20	0
    Cs(f):	45.8909	45.7933	0.0975323	0
    Cs(r):	-45.8909	-45.7933	-0.0975323	0

    writing force and moment coefficient files.

Time = 22

smoothSolver:  Solving for Ux, Initial residual = 0.00834652, Final residual = 0.000643997, No Iterations 2
smoothSolver:  Solving for Uy, Initial residual = 0.0298557, Final residual = 0.00208747, No Iterations 2
GAMG:  Solving for p, Initial residual = 0.334099, Final residual = 0.00998548, No Iterations 5
GAMG:  Solving for p, Initial residual = 0.00949968, Final residual = 0.000414945, No Iterations 22
GAMG:  Solving for p, Initial residual = 0.00081518, Final residual = 3.16408e-05, No Iterations 14
GAMG:  Solving for p, Initial residual = 0.000160857, Final residual = 7.96533e-06, No Iterations 12
time step continuity errors : sum local = 0.00362851, global = -0.000172939, cumulative = -0.00373036
smoothSolver:  Solving for omega, Initial residual = 0.0258164, Final residual = 0.00179264, No Iterations 2
smoothSolver:  Solving for k, Initial residual = 9.76077e-05, Final residual = 9.32746e-06, No Iterations 2
bounding k, min: -3.53269e-06 max: 24.3017 average: 0.0373216
ExecutionTime = 52.21 s  ClockTime = 52 s

forceCoeffs forceCoeffs1 write:
    Coefficient	Total	Pressure	Viscous	Internal
    Cd:	61.1587	60.9549	0.203782	0
    Cd(f):	-8.79892	-8.89306	0.094137	0
    Cd(r):	69.9576	69.848	0.109645	0
    Cl:	78.7566	78.741	0.0155084	0
    Cl(f):	8.3864	8.38127	0.00512265	0
    Cl(r):	70.3702	70.3598	0.0103857	0
    CmPitch:	-30.9919	-30.9892	-0.00263153	0
    CmRoll:	-39.3783	-39.3705	-0.00775418	0
    CmYaw:	30.5794	30.4775	0.101891	0
    Cs:	-1.23879e-18	-1.33403e-18	9.52398e-20	0
    Cs(f):	30.5794	30.4775	0.101891	0
    Cs(r):	-30.5794	-30.4775	-0.101891	0

    writing force and moment coefficient files.

Time = 23

smoothSolver:  Solving for Ux, Initial residual = 0.00810109, Final residual = 0.00063506, No Iterations 2
smoothSolver:  Solving for Uy, Initial residual = 0.028083, Final residual = 0.00198776, No Iterations 2
GAMG:  Solving for p, Initial residual = 0.267585, Final residual = 0.01323, No Iterations 4
GAMG:  Solving for p, Initial residual = 0.0138057, Final residual = 0.000625173, No Iterations 18
GAMG:  Solving for p, Initial residual = 0.00106149, Final residual = 5.12096e-05, No Iterations 16
GAMG:  Solving for p, Initial residual = 0.000233502, Final residual = 1.0244e-05, No Iterations 14
time step continuity errors : sum local = 0.00404422, global = 3.44762e-05, cumulative = -0.00369588
smoothSolver:  Solving for omega, Initial residual = 0.0249164, Final residual = 0.00169724, No Iterations 2
smoothSolver:  Solving for k, Initial residual = 8.95131e-05, Final residual = 8.53305e-06, No Iterations 2
bounding k, min: -1.04714e-07 max: 25.8145 average: 0.0403848
ExecutionTime = 54.53 s  ClockTime = 55 s

forceCoeffs forceCoeffs1 write:
    Coefficient	Total	Pressure	Viscous	Internal
    Cd:	28.5647	28.3556	0.209105	0
    Cd(f):	-6.19	-6.28659	0.0965818	0
    Cd(r):	34.7547	34.6421	0.112523	0
    Cl:	40.9447	40.9287	0.015941	0
    Cl(f):	7.23611	7.23095	0.00516157	0
    Cl(r):	33.7086	33.6978	0.0107794	0
    CmPitch:	-13.2362	-13.2334	-0.00280893	0
    CmRoll:	-20.4723	-20.4644	-0.00797051	0
    CmYaw:	14.2823	14.1778	0.104552	0
    Cs:	-1.37741e-18	-1.44395e-18	6.65409e-20	0
    Cs(f):	14.2823	14.1778	0.104552	0
    Cs(r):	-14.2823	-14.1778	-0.104552	0

    writing force and moment coefficient files.

Time = 24

smoothSolver:  Solving for Ux, Initial residual = 0.00812714, Final residual = 0.000626467, No Iterations 2
smoothSolver:  Solving for Uy, Initial residual = 0.0268404, Final residual = 0.00189945, No Iterations 2
GAMG:  Solving for p, Initial residual = 0.247825, Final residual = 0.0121922, No Iterations 4
GAMG:  Solving for p, Initial residual = 0.0131966, Final residual = 0.000481609, No Iterations 18
GAMG:  Solving for p, Initial residual = 0.000997535, Final residual = 4.70061e-05, No Iterations 14
GAMG:  Solving for p, Initial residual = 0.000177055, Final residual = 8.69389e-06, No Iterations 12
time step continuity errors : sum local = 0.00251014, global = 9.14e-05, cumulative = -0.00360448
smoothSolver:  Solving for omega, Initial residual = 0.0240103, Final residual = 0.00168255, No Iterations 2
smoothSolver:  Solving for k, Initial residual = 8.03172e-05, Final residual = 7.65171e-06, No Iterations 2
bounding k, min: -5.6472e-05 max: 27.3499 average: 0.0433294
ExecutionTime = 56.84 s  ClockTime = 57 s

forceCoeffs forceCoeffs1 write:
    Coefficient	Total	Pressure	Viscous	Internal
    Cd:	10.4888	10.2769	0.211909	0
    Cd(f):	-5.83376	-5.93171	0.0979562	0
    Cd(r):	16.3226	16.2086	0.113953	0
    Cl:	22.1563	22.1403	0.0159963	0
    Cl(f):	5.56894	5.56391	0.00502728	0
    Cl(r):	16.5874	16.5764	0.010969	0
    CmPitch:	-5.50922	-5.50624	-0.00297088	0
    CmRoll:	-11.0782	-11.0702	-0.00799816	0
    CmYaw:	5.2444	5.13844	0.105954	0
    Cs:	-1.31103e-18	-1.3111e-18	7.41598e-23	0
    Cs(f):	5.2444	5.13844	0.105954	0
    Cs(r):	-5.2444	-5.13844	-0.105954	0

    writing force and moment coefficient files.

Time = 25

smoothSolver:  Solving for Ux, Initial residual = 0.00808067, Final residual = 0.000608481, No Iterations 2
smoothSolver:  Solving for Uy, Initial residual = 0.0259774, Final residual = 0.00183836, No Iterations 2
GAMG:  Solving for p, Initial residual = 0.24266, Final residual = 0.00751214, No Iterations 5
GAMG:  Solving for p, Initial residual = 0.00970138, Final residual = 0.000387292, No Iterations 17
GAMG:  Solving for p, Initial residual = 0.00100829, Final residual = 3.86302e-05, No Iterations 16
GAMG:  Solving for p, Initial residual = 0.000144227, Final residual = 6.72899e-06, No Iterations 16
time step continuity errors : sum local = 0.00140577, global = 5.85179e-05, cumulative = -0.00354596
smoothSolver:  Solving for omega, Initial residual = 0.0230994, Final residual = 0.00160337, No Iterations 2
smoothSolver:  Solving for k, Initial residual = 7.18631e-05, Final residual = 6.91288e-06, No Iterations 2
bounding k, min: -0.00567431 max: 28.7007 average: 0.0461313
ExecutionTime = 59.27 s  ClockTime = 59 s

forceCoeffs forceCoeffs1 write:
    Coefficient	Total	Pressure	Viscous	Internal
    Cd:	7.03817	6.82435	0.213828	0
    Cd(f):	-5.637	-5.7359	0.0989016	0
    Cd(r):	12.6752	12.5602	0.114926	0
    Cl:	18.3122	18.2961	0.0160246	0
    Cl(f):	3.99709	3.99223	0.00485582	0
    Cl(r):	14.3151	14.3039	0.0111688	0
    CmPitch:	-5.15899	-5.15584	-0.00315649	0
    CmRoll:	-9.15608	-9.14807	-0.00801232	0
    CmYaw:	3.51909	3.41217	0.106914	0
    Cs:	-1.03642e-18	-1.03674e-18	3.14697e-22	0
    Cs(f):	3.51909	3.41217	0.106914	0
    Cs(r):	-3.51909	-3.41217	-0.106914	0

    writing force and moment coefficient files.

Time = 26

smoothSolver:  Solving for Ux, Initial residual = 0.00788451, Final residual = 0.00059494, No Iterations 2
smoothSolver:  Solving for Uy, Initial residual = 0.0253791, Final residual = 0.00180884, No Iterations 2
GAMG:  Solving for p, Initial residual = 0.255298, Final residual = 0.00789406, No Iterations 5
GAMG:  Solving for p, Initial residual = 0.0107695, Final residual = 0.000430077, No Iterations 17
GAMG:  Solving for p, Initial residual = 0.0011626, Final residual = 4.47576e-05, No Iterations 16
GAMG:  Solving for p, Initial residual = 0.000173203, Final residual = 6.89873e-06, No Iterations 16
time step continuity errors : sum local = 0.00111043, global = 4.78943e-05, cumulative = -0.00349807
smoothSolver:  Solving for omega, Initial residual = 0.0224089, Final residual = 0.00154915, No Iterations 2
smoothSolver:  Solving for k, Initial residual = 6.47869e-05, Final residual = 6.28995e-06, No Iterations 2
bounding k, min: -0.00335175 max: 30.0902 average: 0.0488065
ExecutionTime = 61.28 s  ClockTime = 61 s

forceCoeffs forceCoeffs1 write:
    Coefficient	Total	Pressure	Viscous	Internal
    Cd:	11.915	11.699	0.216023	0
    Cd(f):	-4.82226	-4.92219	0.0999302	0
    Cd(r):	16.7373	16.6212	0.116093	0
    Cl:	21.5596	21.5434	0.016163	0
    Cl(f):	3.16829	3.16356	0.00472794	0
    Cl(r):	18.3913	18.3798	0.0114351	0
    CmPitch:	-7.61149	-7.60814	-0.00335359	0
    CmRoll:	-10.7798	-10.7717	-0.00808152	0
    CmYaw:	5.95752	5.84951	0.108012	0
    Cs:	-7.3262e-19	-7.41622e-19	9.00215e-21	0
    Cs(f):	5.95752	5.84951	0.108012	0
    Cs(r):	-5.95752	-5.84951	-0.108012	0

    writing force and moment coefficient files.

Time = 27

smoothSolver:  Solving for Ux, Initial residual = 0.00757305, Final residual = 0.000566709, No Iterations 2
smoothSolver:  Solving for Uy, Initial residual = 0.0248791, Final residual = 0.0017884, No Iterations 2
GAMG:  Solving for p, Initial residual = 0.269724, Final residual = 0.00791536, No Iterations 5
GAMG:  Solving for p, Initial residual = 0.0104572, Final residual = 0.000410869, No Iterations 15
GAMG:  Solving for p, Initial residual = 0.00105984, Final residual = 4.50704e-05, No Iterations 16
GAMG:  Solving for p, Initial residual = 0.000168779, Final residual = 6.15465e-06, No Iterations 18
time step continuity errors : sum local = 0.000934392, global = 3.74439e-05, cumulative = -0.00346063
smoothSolver:  Solving for omega, Initial residual = 0.0217336, Final residual = 0.00151995, No Iterations 2
smoothSolver:  Solving for k, Initial residual = 5.95518e-05, Final residual = 5.81598e-06, No Iterations 2
bounding k, min: -1.05572e-07 max: 31.2988 average: 0.0513666
ExecutionTime = 63.38 s  ClockTime = 64 s

forceCoeffs forceCoeffs1 write:
    Coefficient	Total	Pressure	Viscous	Internal
    Cd:	19.723	19.5042	0.218834	0
    Cd(f):	-3.39994	-3.50118	0.101236	0
    Cd(r):	23.1229	23.0053	0.117598	0
    Cl:	26.5229	26.5065	0.0163613	0
    Cl(f):	3.24111	3.23644	0.00467235	0
    Cl(r):	23.2818	23.2701	0.011689	0
    CmPitch:	-10.0203	-10.0168	-0.0035083	0
    CmRoll:	-13.2614	-13.2533	-0.00818066	0
    CmYaw:	9.8615	9.75208	0.109417	0
    Cs:	-5.13363e-19	-5.13417e-19	5.358e-23	0
    Cs(f):	9.8615	9.75208	0.109417	0
    Cs(r):	-9.8615	-9.75208	-0.109417	0

    writing force and moment coefficient files.

Time = 28

smoothSolver:  Solving for Ux, Initial residual = 0.00729399, Final residual = 0.00054955, No Iterations 2
smoothSolver:  Solving for Uy, Initial residual = 0.0244046, Final residual = 0.00174911, No Iterations 2
GAMG:  Solving for p, Initial residual = 0.287448, Final residual = 0.0102414, No Iterations 5
GAMG:  Solving for p, Initial residual = 0.011639, Final residual = 0.000495941, No Iterations 13
GAMG:  Solving for p, Initial residual = 0.000971042, Final residual = 3.9954e-05, No Iterations 18
GAMG:  Solving for p, Initial residual = 0.000149444, Final residual = 6.58539e-06, No Iterations 20
time step continuity errors : sum local = 0.00100428, global = 4.21127e-05, cumulative = -0.00341851
smoothSolver:  Solving for omega, Initial residual = 0.0212612, Final residual = 0.00149406, No Iterations 2
smoothSolver:  Solving for k, Initial residual = 5.57241e-05, Final residual = 5.50003e-06, No Iterations 2
bounding k, min: -1.28885e-07 max: 32.3963 average: 0.0538625
ExecutionTime = 65.45 s  ClockTime = 66 s

forceCoeffs forceCoeffs1 write:
    Coefficient	Total	Pressure	Viscous	Internal
    Cd:	26.8264	26.6044	0.222027	0
    Cd(f):	-1.80921	-1.91191	0.102696	0
    Cd(r):	28.6356	28.5163	0.119332	0
    Cl:	30.4448	30.4282	0.0166361	0
    Cl(f):	4.0234	4.01872	0.00468098	0
    Cl(r):	26.4214	26.4095	0.0119551	0
    CmPitch:	-11.199	-11.1954	-0.00363706	0
    CmRoll:	-15.2224	-15.2141	-0.00831803	0
    CmYaw:	13.4132	13.3022	0.111014	0
    Cs:	-3.8289e-19	-3.98779e-19	1.58889e-20	0
    Cs(f):	13.4132	13.3022	0.111014	0
    Cs(r):	-13.4132	-13.3022	-0.111014	0

    writing force and moment coefficient files.

Time = 29

smoothSolver:  Solving for Ux, Initial residual = 0.00709892, Final residual = 0.000538185, No Iterations 2
smoothSolver:  Solving for Uy, Initial residual = 0.0239567, Final residual = 0.00172285, No Iterations 2
GAMG:  Solving for p, Initial residual = 0.291346, Final residual = 0.0111402, No Iterations 4
GAMG:  Solving for p, Initial residual = 0.0112474, Final residual = 0.00048679, No Iterations 19
GAMG:  Solving for p, Initial residual = 0.000749873, Final residual = 3.5315e-05, No Iterations 16
GAMG:  Solving for p, Initial residual = 0.000136391, Final residual = 6.18824e-06, No Iterations 16
time step continuity errors : sum local = 0.00106707, global = 2.73954e-05, cumulative = -0.00339112
smoothSolver:  Solving for omega, Initial residual = 0.0206462, Final residual = 0.0014431, No Iterations 2
smoothSolver:  Solving for k, Initial residual = 5.29115e-05, Final residual = 5.2642e-06, No Iterations 2
bounding k, min: -4.58828e-07 max: 33.3416 average: 0.0563322
ExecutionTime = 67.51 s  ClockTime = 68 s

forceCoeffs forceCoeffs1 write:
    Coefficient	Total	Pressure	Viscous	Internal
    Cd:	29.778	29.5529	0.225107	0
    Cd(f):	-0.461596	-0.565706	0.104111	0
    Cd(r):	30.2396	30.1186	0.120997	0
    Cl:	30.7012	30.6843	0.0168858	0
    Cl(f):	4.9626	4.95788	0.00471853	0
    Cl(r):	25.7386	25.7264	0.0121673	0
    CmPitch:	-10.388	-10.3843	-0.00372439	0
    CmRoll:	-15.3506	-15.3421	-0.00844292	0
    CmYaw:	14.889	14.7764	0.112554	0
    Cs:	-3.80606e-19	-3.85742e-19	5.136e-21	0
    Cs(f):	14.889	14.7764	0.112554	0
    Cs(r):	-14.889	-14.7764	-0.112554	0

    writing force and moment coefficient files.

Time = 30

smoothSolver:  Solving for Ux, Initial residual = 0.00691772, Final residual = 0.000532165, No Iterations 2
smoothSolver:  Solving for Uy, Initial residual = 0.0234964, Final residual = 0.00168883, No Iterations 2
GAMG:  Solving for p, Initial residual = 0.280144, Final residual = 0.010504, No Iterations 4
GAMG:  Solving for p, Initial residual = 0.0104165, Final residual = 0.000476974, No Iterations 16
GAMG:  Solving for p, Initial residual = 0.000682527, Final residual = 3.39771e-05, No Iterations 18
GAMG:  Solving for p, Initial residual = 9.88438e-05, Final residual = 4.13321e-06, No Iterations 18
time step continuity errors : sum local = 0.00077871, global = -2.82763e-05, cumulative = -0.00341939
smoothSolver:  Solving for omega, Initial residual = 0.0202024, Final residual = 0.00142182, No Iterations 2
smoothSolver:  Solving for k, Initial residual = 5.04656e-05, Final residual = 5.01322e-06, No Iterations 2
bounding k, min: -4.13501e-05 max: 34.1212 average: 0.0587798
ExecutionTime = 69.54 s  ClockTime = 70 s

forceCoeffs forceCoeffs1 write:
    Coefficient	Total	Pressure	Viscous	Internal
    Cd:	28.9909	28.7633	0.227619	0
    Cd(f):	-0.31829	-0.423548	0.105257	0
    Cd(r):	29.3092	29.1868	0.122361	0
    Cl:	29.6275	29.6104	0.017104	0
    Cl(f):	5.6675	5.66274	0.00475672	0
    Cl(r):	23.96	23.9477	0.0123473	0
    CmPitch:	-9.14625	-9.14245	-0.00379529	0
    CmRoll:	-14.8137	-14.8052	-0.00855202	0
    CmYaw:	14.4955	14.3816	0.113809	0
    Cs:	-4.34407e-19	-4.3693e-19	2.52219e-21	0
    Cs(f):	14.4955	14.3816	0.113809	0
    Cs(r):	-14.4955	-14.3816	-0.113809	0

    writing force and moment coefficient files.

Time = 31

smoothSolver:  Solving for Ux, Initial residual = 0.00675607, Final residual = 0.000515765, No Iterations 2
smoothSolver:  Solving for Uy, Initial residual = 0.0230108, Final residual = 0.00164438, No Iterations 2
GAMG:  Solving for p, Initial residual = 0.253731, Final residual = 0.00994134, No Iterations 4
GAMG:  Solving for p, Initial residual = 0.00980964, Final residual = 0.000466964, No Iterations 14
GAMG:  Solving for p, Initial residual = 0.000602492, Final residual = 2.89771e-05, No Iterations 20
GAMG:  Solving for p, Initial residual = 9.22337e-05, Final residual = 4.51425e-06, No Iterations 16
time step continuity errors : sum local = 0.000902684, global = -4.84177e-05, cumulative = -0.00346781
smoothSolver:  Solving for omega, Initial residual = 0.0196973, Final residual = 0.00140136, No Iterations 2
smoothSolver:  Solving for k, Initial residual = 4.78823e-05, Final residual = 5.25719e-07, No Iterations 4
bounding k, min: -1.34028e-07 max: 34.776 average: 0.061473
ExecutionTime = 71.52 s  ClockTime = 72 s

forceCoeffs forceCoeffs1 write:
    Coefficient	Total	Pressure	Viscous	Internal
    Cd:	26.0041	25.7745	0.229567	0
    Cd(f):	-1.50531	-1.61143	0.106124	0
    Cd(r):	27.5094	27.3859	0.123443	0
    Cl:	29.0147	28.9974	0.0173185	0
    Cl(f):	5.96259	5.9578	0.00478861	0
    Cl(r):	23.0521	23.0396	0.0125299	0
    CmPitch:	-8.54475	-8.54088	-0.00387064	0
    CmRoll:	-14.5073	-14.4987	-0.00865925	0
    CmYaw:	13.002	12.8872	0.114784	0
    Cs:	-4.87069e-19	-5.04821e-19	1.77517e-20	0
    Cs(f):	13.002	12.8872	0.114784	0
    Cs(r):	-13.002	-12.8872	-0.114784	0

    writing force and moment coefficient files.

Time = 32

smoothSolver:  Solving for Ux, Initial residual = 0.00664957, Final residual = 0.000509267, No Iterations 2
smoothSolver:  Solving for Uy, Initial residual = 0.0225793, Final residual = 0.00162138, No Iterations 2
GAMG:  Solving for p, Initial residual = 0.227796, Final residual = 0.00824188, No Iterations 4
GAMG:  Solving for p, Initial residual = 0.00821329, Final residual = 0.000359572, No Iterations 20
GAMG:  Solving for p, Initial residual = 0.000473789, Final residual = 1.76637e-05, No Iterations 24
GAMG:  Solving for p, Initial residual = 7.87596e-05, Final residual = 3.29943e-06, No Iterations 16
time step continuity errors : sum local = 0.000641524, global = -3.20243e-05, cumulative = -0.00349984
smoothSolver:  Solving for omega, Initial residual = 0.0193072, Final residual = 0.00132893, No Iterations 2
smoothSolver:  Solving for k, Initial residual = 4.5275e-05, Final residual = 5.1572e-07, No Iterations 4
bounding k, min: -1.09535e-07 max: 35.2647 average: 0.0641358
ExecutionTime = 73.75 s  ClockTime = 74 s

forceCoeffs forceCoeffs1 write:
    Coefficient	Total	Pressure	Viscous	Internal
    Cd:	22.45	22.2193	0.230767	0
    Cd(f):	-3.08542	-3.19206	0.10664	0
    Cd(r):	25.5355	25.4113	0.124127	0
    Cl:	28.6209	28.6034	0.0174871	0
    Cl(f):	5.82669	5.82189	0.00480126	0
    Cl(r):	22.7942	22.7815	0.0126858	0
    CmPitch:	-8.48374	-8.4798	-0.00394228	0
    CmRoll:	-14.3104	-14.3017	-0.00874354	0
    CmYaw:	11.225	11.1096	0.115383	0
    Cs:	-5.12139e-19	-5.56033e-19	4.38939e-20	0
    Cs(f):	11.225	11.1096	0.115383	0
    Cs(r):	-11.225	-11.1096	-0.115383	0

    writing force and moment coefficient files.

Time = 33

smoothSolver:  Solving for Ux, Initial residual = 0.0065942, Final residual = 0.00050507, No Iterations 2
smoothSolver:  Solving for Uy, Initial residual = 0.0222314, Final residual = 0.00159318, No Iterations 2
GAMG:  Solving for p, Initial residual = 0.20524, Final residual = 0.00658015, No Iterations 4
GAMG:  Solving for p, Initial residual = 0.0066897, Final residual = 0.000307985, No Iterations 17
GAMG:  Solving for p, Initial residual = 0.000424792, Final residual = 2.00441e-05, No Iterations 40
GAMG:  Solving for p, Initial residual = 7.85119e-05, Final residual = 3.07936e-06, No Iterations 16
time step continuity errors : sum local = 0.000571057, global = 1.62826e-05, cumulative = -0.00348355
smoothSolver:  Solving for omega, Initial residual = 0.018864, Final residual = 0.00130893, No Iterations 2
smoothSolver:  Solving for k, Initial residual = 4.30749e-05, Final residual = 4.98007e-07, No Iterations 4
bounding k, min: -2.52904e-05 max: 35.6055 average: 0.0667813
ExecutionTime = 76.28 s  ClockTime = 76 s

forceCoeffs forceCoeffs1 write:
    Coefficient	Total	Pressure	Viscous	Internal
    Cd:	19.64	19.4085	0.23149	0
    Cd(f):	-4.43259	-4.53952	0.106924	0
    Cd(r):	24.0726	23.948	0.124565	0
    Cl:	28.5052	28.4876	0.0176407	0
    Cl(f):	5.46201	5.45721	0.00480539	0
    Cl(r):	23.0432	23.0303	0.0128353	0
    CmPitch:	-8.79058	-8.78657	-0.00401496	0
    CmRoll:	-14.2526	-14.2438	-0.00882035	0
    CmYaw:	9.82	9.70426	0.115745	0
    Cs:	-5.56509e-19	-5.70158e-19	1.36486e-20	0
    Cs(f):	9.82	9.70426	0.115745	0
    Cs(r):	-9.82	-9.70426	-0.115745	0

    writing force and moment coefficient files.

Time = 34

smoothSolver:  Solving for Ux, Initial residual = 0.00656321, Final residual = 0.000503, No Iterations 2
smoothSolver:  Solving for Uy, Initial residual = 0.0219459, Final residual = 0.00156965, No Iterations 2
GAMG:  Solving for p, Initial residual = 0.195081, Final residual = 0.00962135, No Iterations 3
GAMG:  Solving for p, Initial residual = 0.00956472, Final residual = 0.000477395, No Iterations 10
GAMG:  Solving for p, Initial residual = 0.000642993, Final residual = 2.65945e-05, No Iterations 18
GAMG:  Solving for p, Initial residual = 8.79213e-05, Final residual = 3.63832e-06, No Iterations 16
time step continuity errors : sum local = 0.000608545, global = 2.03873e-05, cumulative = -0.00346317
smoothSolver:  Solving for omega, Initial residual = 0.0183899, Final residual = 0.00129912, No Iterations 2
smoothSolver:  Solving for k, Initial residual = 4.12269e-05, Final residual = 4.99577e-07, No Iterations 4
bounding k, min: -9.38558e-08 max: 35.8019 average: 0.0694088
ExecutionTime = 78.11 s  ClockTime = 78 s

forceCoeffs forceCoeffs1 write:
    Coefficient	Total	Pressure	Viscous	Internal
    Cd:	17.8014	17.5694	0.232	0
    Cd(f):	-5.0621	-5.16922	0.107118	0
    Cd(r):	22.8635	22.7386	0.124881	0
    Cl:	27.9256	27.9078	0.0177632	0
    Cl(f):	5.02052	5.01573	0.00479823	0
    Cl(r):	22.905	22.8921	0.0129649	0
    CmPitch:	-8.94225	-8.93817	-0.00408336	0
    CmRoll:	-13.9628	-13.9539	-0.00888158	0
    CmYaw:	8.90068	8.78468	0.116	0
    Cs:	-5.38201e-19	-5.50418e-19	1.22173e-20	0
    Cs(f):	8.90068	8.78468	0.116	0
    Cs(r):	-8.90068	-8.78468	-0.116	0

    writing force and moment coefficient files.

Time = 35

smoothSolver:  Solving for Ux, Initial residual = 0.00652561, Final residual = 0.000500774, No Iterations 2
smoothSolver:  Solving for Uy, Initial residual = 0.0217085, Final residual = 0.00155703, No Iterations 2
GAMG:  Solving for p, Initial residual = 0.185076, Final residual = 0.00626506, No Iterations 4
GAMG:  Solving for p, Initial residual = 0.00649604, Final residual = 0.000225548, No Iterations 13
GAMG:  Solving for p, Initial residual = 0.000385498, Final residual = 1.57304e-05, No Iterations 16
GAMG:  Solving for p, Initial residual = 5.90448e-05, Final residual = 2.70354e-06, No Iterations 14
time step continuity errors : sum local = 0.000426247, global = 1.70832e-05, cumulative = -0.00344608
smoothSolver:  Solving for omega, Initial residual = 0.018085, Final residual = 0.00127461, No Iterations 2
smoothSolver:  Solving for k, Initial residual = 3.97996e-05, Final residual = 4.83915e-07, No Iterations 4
bounding k, min: -5.84296e-08 max: 35.8919 average: 0.0720245
ExecutionTime = 79.91 s  ClockTime = 80 s

forceCoeffs forceCoeffs1 write:
    Coefficient	Total	Pressure	Viscous	Internal
    Cd:	17.3026	17.07	0.232545	0
    Cd(f):	-5.23558	-5.34293	0.10735	0
    Cd(r):	22.5381	22.4129	0.125194	0
    Cl:	27.7737	27.7559	0.0178443	0
    Cl(f):	4.69315	4.68837	0.00478935	0
    Cl(r):	23.0806	23.0675	0.0130549	0
    CmPitch:	-9.1937	-9.18957	-0.00413279	0
    CmRoll:	-13.8869	-13.8779	-0.00892214	0
    CmYaw:	8.65128	8.53501	0.116272	0
    Cs:	-4.98078e-19	-5.12066e-19	1.39881e-20	0
    Cs(f):	8.65128	8.53501	0.116272	0
    Cs(r):	-8.65128	-8.53501	-0.116272	0

    writing force and moment coefficient files.

Time = 36

smoothSolver:  Solving for Ux, Initial residual = 0.0064838, Final residual = 0.00049402, No Iterations 2
smoothSolver:  Solving for Uy, Initial residual = 0.0215077, Final residual = 0.00153963, No Iterations 2
GAMG:  Solving for p, Initial residual = 0.183923, Final residual = 0.00662564, No Iterations 4
GAMG:  Solving for p, Initial residual = 0.00689282, Final residual = 0.000294331, No Iterations 13
GAMG:  Solving for p, Initial residual = 0.000439334, Final residual = 1.59975e-05, No Iterations 16
GAMG:  Solving for p, Initial residual = 6.09539e-05, Final residual = 2.50887e-06, No Iterations 14
time step continuity errors : sum local = 0.000364439, global = 1.60456e-05, cumulative = -0.00343004
smoothSolver:  Solving for omega, Initial residual = 0.0177734, Final residual = 0.00128058, No Iterations 2
bounding omega, min: -4152.47 max: 342382 average: 3029.86
smoothSolver:  Solving for k, Initial residual = 3.88163e-05, Final residual = 4.86951e-07, No Iterations 4
bounding k, min: -0.000226203 max: 35.9163 average: 0.0746361
ExecutionTime = 81.77 s  ClockTime = 82 s

forceCoeffs forceCoeffs1 write:
    Coefficient	Total	Pressure	Viscous	Internal
    Cd:	17.5801	17.3469	0.2332	0
    Cd(f):	-4.95775	-5.06539	0.10764	0
    Cd(r):	22.5379	22.4123	0.125559	0
    Cl:	27.4956	27.4777	0.0179191	0
    Cl(f):	4.56437	4.55958	0.00478862	0
    Cl(r):	22.9313	22.9181	0.0131305	0
    CmPitch:	-9.18345	-9.17927	-0.00417093	0
    CmRoll:	-13.7478	-13.7389	-0.00895954	0
    CmYaw:	8.79006	8.67346	0.1166	0
    Cs:	-4.5952e-19	-4.65328e-19	5.80763e-21	0
    Cs(f):	8.79006	8.67346	0.1166	0
    Cs(r):	-8.79006	-8.67346	-0.1166	0

    writing force and moment coefficient files.

Time = 37

smoothSolver:  Solving for Ux, Initial residual = 0.00641521, Final residual = 0.000489256, No Iterations 2
smoothSolver:  Solving for Uy, Initial residual = 0.0212999, Final residual = 0.00152452, No Iterations 2
GAMG:  Solving for p, Initial residual = 0.180636, Final residual = 0.00874806, No Iterations 3
GAMG:  Solving for p, Initial residual = 0.00874037, Final residual = 0.000428196, No Iterations 12
GAMG:  Solving for p, Initial residual = 0.000595499, Final residual = 2.72628e-05, No Iterations 14
GAMG:  Solving for p, Initial residual = 7.55735e-05, Final residual = 3.07911e-06, No Iterations 14
time step continuity errors : sum local = 0.000432839, global = 2.74515e-05, cumulative = -0.00340259
smoothSolver:  Solving for omega, Initial residual = 0.0175145, Final residual = 0.0012313, No Iterations 2
smoothSolver:  Solving for k, Initial residual = 3.81164e-05, Final residual = 4.83067e-07, No Iterations 4
bounding k, min: -0.0409816 max: 35.9762 average: 0.0772643
ExecutionTime = 83.48 s  ClockTime = 84 s

forceCoeffs forceCoeffs1 write:
    Coefficient	Total	Pressure	Viscous	Internal
    Cd:	18.0944	17.8605	0.233938	0
    Cd(f):	-4.12987	-4.23785	0.107983	0
    Cd(r):	22.2243	22.0983	0.125955	0
    Cl:	26.3541	26.3362	0.017972	0
    Cl(f):	4.65477	4.64998	0.00479344	0
    Cl(r):	21.6994	21.6862	0.0131786	0
    CmPitch:	-8.52229	-8.5181	-0.00419258	0
    CmRoll:	-13.1771	-13.1681	-0.00898602	0
    CmYaw:	9.0472	8.93023	0.116969	0
    Cs:	-4.25166e-19	-4.2106e-19	-4.10597e-21	0
    Cs(f):	9.0472	8.93023	0.116969	0
    Cs(r):	-9.0472	-8.93023	-0.116969	0

    writing force and moment coefficient files.

Time = 38

smoothSolver:  Solving for Ux, Initial residual = 0.00634544, Final residual = 0.000481565, No Iterations 2
smoothSolver:  Solving for Uy, Initial residual = 0.0210745, Final residual = 0.0015061, No Iterations 2
GAMG:  Solving for p, Initial residual = 0.180025, Final residual = 0.00783984, No Iterations 3
GAMG:  Solving for p, Initial residual = 0.0078533, Final residual = 0.000275678, No Iterations 12
GAMG:  Solving for p, Initial residual = 0.000411961, Final residual = 1.8636e-05, No Iterations 14
GAMG:  Solving for p, Initial residual = 5.77363e-05, Final residual = 2.04795e-06, No Iterations 14
time step continuity errors : sum local = 0.000283878, global = 1.12175e-05, cumulative = -0.00339137
smoothSolver:  Solving for omega, Initial residual = 0.017277, Final residual = 0.00123244, No Iterations 2
smoothSolver:  Solving for k, Initial residual = 3.7713e-05, Final residual = 4.87322e-07, No Iterations 4
bounding k, min: -3.58101e-06 max: 36.0443 average: 0.0799262
ExecutionTime = 85.21 s  ClockTime = 85 s

forceCoeffs forceCoeffs1 write:
    Coefficient	Total	Pressure	Viscous	Internal
    Cd:	18.5223	18.2876	0.234673	0
    Cd(f):	-3.53801	-3.64634	0.108326	0
    Cd(r):	22.0603	21.9339	0.126347	0
    Cl:	25.5983	25.5803	0.0180209	0
    Cl(f):	4.84028	4.83547	0.00480171	0
    Cl(r):	20.758	20.7448	0.0132192	0
    CmPitch:	-7.95887	-7.95466	-0.00420873	0
    CmRoll:	-12.7991	-12.7901	-0.00901044	0
    CmYaw:	9.26114	9.1438	0.117337	0
    Cs:	-3.7129e-19	-3.84376e-19	1.3086e-20	0
    Cs(f):	9.26114	9.1438	0.117337	0
    Cs(r):	-9.26114	-9.1438	-0.117337	0

    writing force and moment coefficient files.

Time = 39

smoothSolver:  Solving for Ux, Initial residual = 0.00626825, Final residual = 0.000478269, No Iterations 2
smoothSolver:  Solving for Uy, Initial residual = 0.0208383, Final residual = 0.00148865, No Iterations 2
GAMG:  Solving for p, Initial residual = 0.178823, Final residual = 0.00731724, No Iterations 3
GAMG:  Solving for p, Initial residual = 0.00730945, Final residual = 0.000345058, No Iterations 10
GAMG:  Solving for p, Initial residual = 0.000461338, Final residual = 1.73978e-05, No Iterations 16
GAMG:  Solving for p, Initial residual = 5.70894e-05, Final residual = 2.53637e-06, No Iterations 14
time step continuity errors : sum local = 0.000355773, global = 1.38562e-05, cumulative = -0.00337751
smoothSolver:  Solving for omega, Initial residual = 0.0170614, Final residual = 0.00122135, No Iterations 2
smoothSolver:  Solving for k, Initial residual = 3.72904e-05, Final residual = 4.89207e-07, No Iterations 4
bounding k, min: -0.0566138 max: 36.0954 average: 0.0826202
ExecutionTime = 86.94 s  ClockTime = 87 s

forceCoeffs forceCoeffs1 write:
    Coefficient	Total	Pressure	Viscous	Internal
    Cd:	18.6801	18.4447	0.235345	0
    Cd(f):	-3.1642	-3.27284	0.108642	0
    Cd(r):	21.8443	21.7176	0.126704	0
    Cl:	25.0085	24.9904	0.0180621	0
    Cl(f):	5.04707	5.04226	0.00480992	0
    Cl(r):	19.9614	19.9481	0.0132522	0
    CmPitch:	-7.45716	-7.45294	-0.00422114	0
    CmRoll:	-12.5042	-12.4952	-0.00903106	0
    CmYaw:	9.34003	9.22236	0.117673	0
    Cs:	-3.45895e-19	-3.59783e-19	1.38872e-20	0
    Cs(f):	9.34003	9.22236	0.117673	0
    Cs(r):	-9.34003	-9.22236	-0.117673	0

    writing force and moment coefficient files.

Time = 40

smoothSolver:  Solving for Ux, Initial residual = 0.0062096, Final residual = 0.000471574, No Iterations 2
smoothSolver:  Solving for Uy, Initial residual = 0.0205752, Final residual = 0.00146511, No Iterations 2
GAMG:  Solving for p, Initial residual = 0.16425, Final residual = 0.00685963, No Iterations 3
GAMG:  Solving for p, Initial residual = 0.00679993, Final residual = 0.000312658, No Iterations 10
GAMG:  Solving for p, Initial residual = 0.000404176, Final residual = 1.80696e-05, No Iterations 16
GAMG:  Solving for p, Initial residual = 5.34241e-05, Final residual = 2.49149e-06, No Iterations 14
time step continuity errors : sum local = 0.000367649, global = 1.27486e-05, cumulative = -0.00336476
smoothSolver:  Solving for omega, Initial residual = 0.0167463, Final residual = 0.00116329, No Iterations 2
smoothSolver:  Solving for k, Initial residual = 3.71556e-05, Final residual = 4.84582e-07, No Iterations 4
bounding k, min: -5.87406e-08 max: 36.1469 average: 0.0853343
ExecutionTime = 88.69 s  ClockTime = 89 s

forceCoeffs forceCoeffs1 write:
    Coefficient	Total	Pressure	Viscous	Internal
    Cd:	18.5827	18.3468	0.23591	0
    Cd(f):	-3.24579	-3.35469	0.108903	0
    Cd(r):	21.8285	21.7015	0.127007	0
    Cl:	25.0743	25.0562	0.0181045	0
    Cl(f):	5.19925	5.19443	0.00482248	0
    Cl(r):	19.8751	19.8618	0.013282	0
    CmPitch:	-7.3379	-7.33367	-0.00422976	0
    CmRoll:	-12.5372	-12.5281	-0.00905224	0
    CmYaw:	9.29137	9.17341	0.117955	0
    Cs:	-3.32075e-19	-3.42738e-19	1.0663e-20	0
    Cs(f):	9.29137	9.17341	0.117955	0
    Cs(r):	-9.29137	-9.17341	-0.117955	0

    writing force and moment coefficient files.

Time = 41

smoothSolver:  Solving for Ux, Initial residual = 0.00614724, Final residual = 0.000468677, No Iterations 2
smoothSolver:  Solving for Uy, Initial residual = 0.0203177, Final residual = 0.00144971, No Iterations 2
GAMG:  Solving for p, Initial residual = 0.154746, Final residual = 0.00661654, No Iterations 3
GAMG:  Solving for p, Initial residual = 0.00654241, Final residual = 0.000308478, No Iterations 10
GAMG:  Solving for p, Initial residual = 0.000378784, Final residual = 1.46277e-05, No Iterations 18
GAMG:  Solving for p, Initial residual = 4.70166e-05, Final residual = 2.07856e-06, No Iterations 14
time step continuity errors : sum local = 0.000311347, global = 1.03995e-05, cumulative = -0.00335436
smoothSolver:  Solving for omega, Initial residual = 0.016557, Final residual = 0.00116229, No Iterations 2
smoothSolver:  Solving for k, Initial residual = 3.68799e-05, Final residual = 4.80761e-07, No Iterations 4
bounding k, min: -4.94003e-08 max: 36.2239 average: 0.0880453
ExecutionTime = 90.51 s  ClockTime = 91 s

forceCoeffs forceCoeffs1 write:
    Coefficient	Total	Pressure	Viscous	Internal
    Cd:	18.293	18.0566	0.236391	0
    Cd(f):	-3.46931	-3.57844	0.109123	0
    Cd(r):	21.7623	21.6351	0.127268	0
    Cl:	25.2317	25.2135	0.0181451	0
    Cl(f):	5.25841	5.25358	0.00483611	0
    Cl(r):	19.9732	19.9599	0.013309	0
    CmPitch:	-7.35741	-7.35318	-0.00423642	0
    CmRoll:	-12.6158	-12.6068	-0.00907253	0
    CmYaw:	9.14651	9.02832	0.118195	0
    Cs:	-3.30383e-19	-3.32172e-19	1.78914e-21	0
    Cs(f):	9.14651	9.02832	0.118195	0
    Cs(r):	-9.14651	-9.02832	-0.118195	0

    writing force and moment coefficient files.

Time = 42

smoothSolver:  Solving for Ux, Initial residual = 0.00611429, Final residual = 0.000466274, No Iterations 2
smoothSolver:  Solving for Uy, Initial residual = 0.02006, Final residual = 0.00143594, No Iterations 2
GAMG:  Solving for p, Initial residual = 0.134382, Final residual = 0.00551049, No Iterations 3
GAMG:  Solving for p, Initial residual = 0.0054793, Final residual = 0.000268725, No Iterations 10
GAMG:  Solving for p, Initial residual = 0.000323041, Final residual = 1.52369e-05, No Iterations 16
GAMG:  Solving for p, Initial residual = 4.09751e-05, Final residual = 1.63001e-06, No Iterations 16
time step continuity errors : sum local = 0.000271517, global = 1.01771e-05, cumulative = -0.00334419
smoothSolver:  Solving for omega, Initial residual = 0.0164078, Final residual = 0.00117123, No Iterations 2
smoothSolver:  Solving for k, Initial residual = 3.67181e-05, Final residual = 4.70948e-07, No Iterations 4
bounding k, min: -6.18589e-08 max: 39.9023 average: 0.0907664
ExecutionTime = 92.29 s  ClockTime = 92 s

forceCoeffs forceCoeffs1 write:
    Coefficient	Total	Pressure	Viscous	Internal
    Cd:	17.8455	17.6087	0.236827	0
    Cd(f):	-3.63744	-3.74676	0.109321	0
    Cd(r):	21.4829	21.3554	0.127506	0
    Cl:	25.1204	25.1022	0.0181852	0
    Cl(f):	5.25336	5.24851	0.00484903	0
    Cl(r):	19.867	19.8537	0.0133362	0
    CmPitch:	-7.30683	-7.30259	-0.00424358	0
    CmRoll:	-12.5602	-12.5511	-0.00909261	0
    CmYaw:	8.92275	8.80434	0.118413	0
    Cs:	-3.01251e-19	-3.24541e-19	2.329e-20	0
    Cs(f):	8.92275	8.80434	0.118413	0
    Cs(r):	-8.92275	-8.80434	-0.118413	0

    writing force and moment coefficient files.

Time = 43

smoothSolver:  Solving for Ux, Initial residual = 0.0060783, Final residual = 0.000464729, No Iterations 2
smoothSolver:  Solving for Uy, Initial residual = 0.0198349, Final residual = 0.00141834, No Iterations 2
GAMG:  Solving for p, Initial residual = 0.150551, Final residual = 0.00584091, No Iterations 3
GAMG:  Solving for p, Initial residual = 0.00588669, Final residual = 0.000271668, No Iterations 10
GAMG:  Solving for p, Initial residual = 0.000334791, Final residual = 1.53405e-05, No Iterations 16
GAMG:  Solving for p, Initial residual = 3.95982e-05, Final residual = 1.51161e-06, No Iterations 16
time step continuity errors : sum local = 0.000223773, global = 1.05889e-05, cumulative = -0.0033336
smoothSolver:  Solving for omega, Initial residual = 0.0163224, Final residual = 0.00114971, No Iterations 2
smoothSolver:  Solving for k, Initial residual = 3.69933e-05, Final residual = 4.76991e-07, No Iterations 4
bounding k, min: -0.00328528 max: 47.0805 average: 0.0935016
ExecutionTime = 94.08 s  ClockTime = 94 s

forceCoeffs forceCoeffs1 write:
    Coefficient	Total	Pressure	Viscous	Internal
    Cd:	17.2781	17.0409	0.23724	0
    Cd(f):	-3.47187	-3.58138	0.109508	0
    Cd(r):	20.75	20.6222	0.127732	0
    Cl:	24.2218	24.2036	0.0182241	0
    Cl(f):	5.1983	5.19344	0.00486133	0
    Cl(r):	19.0235	19.0102	0.0133628	0
    CmPitch:	-6.91261	-6.90836	-0.00425074	0
    CmRoll:	-12.1109	-12.1018	-0.00911207	0
    CmYaw:	8.63905	8.52043	0.11862	0
    Cs:	-2.97771e-19	-3.1666e-19	1.88898e-20	0
    Cs(f):	8.63905	8.52043	0.11862	0
    Cs(r):	-8.63905	-8.52043	-0.11862	0

    writing force and moment coefficient files.

Time = 44

smoothSolver:  Solving for Ux, Initial residual = 0.00605321, Final residual = 0.000462952, No Iterations 2
smoothSolver:  Solving for Uy, Initial residual = 0.0196468, Final residual = 0.0014065, No Iterations 2
GAMG:  Solving for p, Initial residual = 0.143467, Final residual = 0.00601356, No Iterations 3
GAMG:  Solving for p, Initial residual = 0.00600492, Final residual = 0.000286014, No Iterations 12
GAMG:  Solving for p, Initial residual = 0.000351463, Final residual = 1.64778e-05, No Iterations 18
GAMG:  Solving for p, Initial residual = 4.31658e-05, Final residual = 1.47878e-06, No Iterations 16
time step continuity errors : sum local = 0.00021502, global = 1.01418e-05, cumulative = -0.00332346
smoothSolver:  Solving for omega, Initial residual = 0.01648, Final residual = 0.00112069, No Iterations 2
smoothSolver:  Solving for k, Initial residual = 3.70901e-05, Final residual = 4.83088e-07, No Iterations 4
bounding k, min: -0.0195977 max: 55.1212 average: 0.0962534
ExecutionTime = 95.96 s  ClockTime = 96 s

forceCoeffs forceCoeffs1 write:
    Coefficient	Total	Pressure	Viscous	Internal
    Cd:	16.7451	16.5074	0.237663	0
    Cd(f):	-3.05872	-3.16842	0.109701	0
    Cd(r):	19.8038	19.6759	0.127962	0
    Cl:	22.8625	22.8443	0.0182613	0
    Cl(f):	5.13719	5.13231	0.00487663	0
    Cl(r):	17.7253	17.712	0.0133847	0
    CmPitch:	-6.29408	-6.28982	-0.00425404	0
    CmRoll:	-11.4313	-11.4221	-0.00913067	0
    CmYaw:	8.37255	8.25372	0.118831	0
    Cs:	-2.83442e-19	-3.09196e-19	2.57543e-20	0
    Cs(f):	8.37255	8.25372	0.118831	0
    Cs(r):	-8.37255	-8.25372	-0.118831	0

    writing force and moment coefficient files.

Time = 45

smoothSolver:  Solving for Ux, Initial residual = 0.00600629, Final residual = 0.000458525, No Iterations 2
smoothSolver:  Solving for Uy, Initial residual = 0.0194168, Final residual = 0.00138716, No Iterations 2
GAMG:  Solving for p, Initial residual = 0.132135, Final residual = 0.00567628, No Iterations 3
GAMG:  Solving for p, Initial residual = 0.00565953, Final residual = 0.000244524, No Iterations 13
GAMG:  Solving for p, Initial residual = 0.00030855, Final residual = 1.22371e-05, No Iterations 22
GAMG:  Solving for p, Initial residual = 3.67e-05, Final residual = 1.53523e-06, No Iterations 14
time step continuity errors : sum local = 0.000229823, global = 1.1705e-05, cumulative = -0.00331175
smoothSolver:  Solving for omega, Initial residual = 0.0159277, Final residual = 0.00110117, No Iterations 2
smoothSolver:  Solving for k, Initial residual = 3.73203e-05, Final residual = 5.00281e-07, No Iterations 4
bounding k, min: -0.0101296 max: 63.8926 average: 0.0990412
ExecutionTime = 97.91 s  ClockTime = 98 s

forceCoeffs forceCoeffs1 write:
    Coefficient	Total	Pressure	Viscous	Internal
    Cd:	16.282	16.0439	0.238103	0
    Cd(f):	-2.59731	-2.70722	0.109907	0
    Cd(r):	18.8793	18.7511	0.128196	0
    Cl:	21.4766	21.4583	0.0182886	0
    Cl(f):	5.07786	5.07297	0.0048913	0
    Cl(r):	16.3987	16.3853	0.0133973	0
    CmPitch:	-5.66044	-5.65618	-0.00425298	0
    CmRoll:	-10.7383	-10.7292	-0.00914428	0
    CmYaw:	8.14099	8.02194	0.119052	0
    Cs:	-2.82652e-19	-3.00446e-19	1.77945e-20	0
    Cs(f):	8.14099	8.02194	0.119052	0
    Cs(r):	-8.14099	-8.02194	-0.119052	0

    writing force and moment coefficient files.

Time = 46

smoothSolver:  Solving for Ux, Initial residual = 0.00597217, Final residual = 0.000458663, No Iterations 2
smoothSolver:  Solving for Uy, Initial residual = 0.0192579, Final residual = 0.00138327, No Iterations 2
GAMG:  Solving for p, Initial residual = 0.133913, Final residual = 0.0059069, No Iterations 3
GAMG:  Solving for p, Initial residual = 0.0058681, Final residual = 0.000231207, No Iterations 13
GAMG:  Solving for p, Initial residual = 0.000288802, Final residual = 1.34514e-05, No Iterations 18
GAMG:  Solving for p, Initial residual = 3.5023e-05, Final residual = 1.54347e-06, No Iterations 14
time step continuity errors : sum local = 0.000221135, global = 9.33918e-06, cumulative = -0.00330241
smoothSolver:  Solving for omega, Initial residual = 0.0155648, Final residual = 0.00110212, No Iterations 2
smoothSolver:  Solving for k, Initial residual = 3.77605e-05, Final residual = 4.97319e-07, No Iterations 4
bounding k, min: -0.00392598 max: 72.9552 average: 0.101876
ExecutionTime = 99.77 s  ClockTime = 100 s

forceCoeffs forceCoeffs1 write:
    Coefficient	Total	Pressure	Viscous	Internal
    Cd:	15.9142	15.6757	0.238559	0
    Cd(f):	-2.02212	-2.13225	0.110127	0
    Cd(r):	17.9364	17.8079	0.128432	0
    Cl:	19.9585	19.9402	0.0183045	0
    Cl(f):	5.05733	5.05242	0.00490405	0
    Cl(r):	14.9012	14.8878	0.0134005	0
    CmPitch:	-4.92192	-4.91767	-0.00424822	0
    CmRoll:	-9.97924	-9.97009	-0.00915227	0
    CmYaw:	7.95712	7.83784	0.11928	0
    Cs:	-2.77139e-19	-2.93529e-19	1.63901e-20	0
    Cs(f):	7.95712	7.83784	0.11928	0
    Cs(r):	-7.95712	-7.83784	-0.11928	0

    writing force and moment coefficient files.

Time = 47

smoothSolver:  Solving for Ux, Initial residual = 0.00592187, Final residual = 0.000453092, No Iterations 2
smoothSolver:  Solving for Uy, Initial residual = 0.0190529, Final residual = 0.00136821, No Iterations 2
[...]
GAMG:  Solving for p, Initial residual = 3.55044e-05, Final residual = 1.48797e-06, No Iterations 16
time step continuity errors : sum local = 6.29267e-05, global = 3.81712e-06, cumulative = -0.00287492
smoothSolver:  Solving for omega, Initial residual = 0.00983876, Final residual = 0.00070088, No Iterations 2
smoothSolver:  Solving for k, Initial residual = 0.00233419, Final residual = 0.000110403, No Iterations 2
bounding k, min: -0.00114157 max: 694.876 average: 0.396261
ExecutionTime = 316.5 s  ClockTime = 317 s

forceCoeffs forceCoeffs1 write:
    Coefficient	Total	Pressure	Viscous	Internal
    Cd:	-0.638553	-0.886092	0.247539	0
    Cd(f):	0.362233	0.251242	0.110991	0
    Cd(r):	-1.00079	-1.13733	0.136548	0
    Cl:	-1.36302	-1.38858	0.0255576	0
    Cl(f):	5.81315	5.80465	0.00850485	0
    Cl(r):	-7.17617	-7.19323	0.0170527	0
    CmPitch:	6.49466	6.49894	-0.00427395	0
    CmRoll:	0.68151	0.694288	-0.0127788	0
    CmYaw:	-0.319277	-0.443046	0.12377	0
    Cs:	-1.66306e-20	-2.02047e-20	3.57406e-21	0
    Cs(f):	-0.319277	-0.443046	0.12377	0
    Cs(r):	0.319277	0.443046	-0.12377	0

    writing force and moment coefficient files.

Time = 142

smoothSolver:  Solving for Ux, Initial residual = 0.00380703, Final residual = 0.000299307, No Iterations 2
smoothSolver:  Solving for Uy, Initial residual = 0.0120408, Final residual = 0.000914942, No Iterations 2
GAMG:  Solving for p, Initial residual = 0.185393, Final residual = 0.0068034, No Iterations 4
GAMG:  Solving for p, Initial residual = 0.00686834, Final residual = 0.000328611, No Iterations 13
GAMG:  Solving for p, Initial residual = 0.000385416, Final residual = 1.38418e-05, No Iterations 22
GAMG:  Solving for p, Initial residual = 3.32207e-05, Final residual = 1.50872e-06, No Iterations 14
time step continuity errors : sum local = 6.72126e-05, global = 4.18278e-06, cumulative = -0.00287074
smoothSolver:  Solving for omega, Initial residual = 0.0098088, Final residual = 0.000693673, No Iterations 2
bounding omega, min: -525.544 max: 278574 average: 2317.25
smoothSolver:  Solving for k, Initial residual = 0.00247176, Final residual = 0.000117896, No Iterations 2
bounding k, min: -0.257929 max: 736.916 average: 0.40348
ExecutionTime = 318.48 s  ClockTime = 319 s

forceCoeffs forceCoeffs1 write:
    Coefficient	Total	Pressure	Viscous	Internal
    Cd:	-0.688049	-0.93526	0.247212	0
    Cd(f):	0.414891	0.304069	0.110821	0
    Cd(r):	-1.10294	-1.23933	0.13639	0
    Cl:	-1.51783	-1.5434	0.0255686	0
    Cl(f):	5.78249	5.77397	0.00851585	0
    Cl(r):	-7.30032	-7.31737	0.0170528	0
    CmPitch:	6.5414	6.54567	-0.00426846	0
    CmRoll:	0.758915	0.771699	-0.0127843	0
    CmYaw:	-0.344024	-0.46763	0.123606	0
    Cs:	-1.73122e-20	-2.05689e-20	3.25676e-21	0
    Cs(f):	-0.344024	-0.46763	0.123606	0
    Cs(r):	0.344024	0.46763	-0.123606	0

    writing force and moment coefficient files.

Time = 143

smoothSolver:  Solving for Ux, Initial residual = 0.00379216, Final residual = 0.000298065, No Iterations 2
smoothSolver:  Solving for Uy, Initial residual = 0.012022, Final residual = 0.000913424, No Iterations 2
GAMG:  Solving for p, Initial residual = 0.191518, Final residual = 0.00732556, No Iterations 4
GAMG:  Solving for p, Initial residual = 0.00739416, Final residual = 0.00031574, No Iterations 14
GAMG:  Solving for p, Initial residual = 0.000381848, Final residual = 1.76857e-05, No Iterations 20
GAMG:  Solving for p, Initial residual = 4.09845e-05, Final residual = 1.62295e-06, No Iterations 18
time step continuity errors : sum local = 6.76844e-05, global = 3.89512e-06, cumulative = -0.00286684
smoothSolver:  Solving for omega, Initial residual = 0.00980331, Final residual = 0.000694634, No Iterations 2
smoothSolver:  Solving for k, Initial residual = 0.00261498, Final residual = 0.000125024, No Iterations 2
bounding k, min: -9.47672e-05 max: 785.764 average: 0.410969
ExecutionTime = 320.54 s  ClockTime = 321 s

forceCoeffs forceCoeffs1 write:
    Coefficient	Total	Pressure	Viscous	Internal
    Cd:	-0.658379	-0.90527	0.246891	0
    Cd(f):	0.438314	0.327658	0.110656	0
    Cd(r):	-1.09669	-1.23293	0.136234	0
    Cl:	-1.53501	-1.56059	0.0255781	0
    Cl(f):	5.77461	5.76609	0.00852807	0
    Cl(r):	-7.30962	-7.32667	0.01705	0
    CmPitch:	6.54212	6.54638	-0.00426099	0
    CmRoll:	0.767504	0.780293	-0.0127891	0
    CmYaw:	-0.32919	-0.452635	0.123445	0
    Cs:	-1.7508e-20	-2.04522e-20	2.94423e-21	0
    Cs(f):	-0.32919	-0.452635	0.123445	0
    Cs(r):	0.32919	0.452635	-0.123445	0

    writing force and moment coefficient files.

Time = 144

smoothSolver:  Solving for Ux, Initial residual = 0.00377994, Final residual = 0.00029696, No Iterations 2
smoothSolver:  Solving for Uy, Initial residual = 0.0119937, Final residual = 0.000911143, No Iterations 2
GAMG:  Solving for p, Initial residual = 0.197293, Final residual = 0.00760844, No Iterations 4
GAMG:  Solving for p, Initial residual = 0.00766413, Final residual = 0.000322586, No Iterations 14
GAMG:  Solving for p, Initial residual = 0.000388849, Final residual = 1.41136e-05, No Iterations 20
GAMG:  Solving for p, Initial residual = 4.00057e-05, Final residual = 1.81055e-06, No Iterations 12
time step continuity errors : sum local = 7.57467e-05, global = 5.61e-06, cumulative = -0.00286123
smoothSolver:  Solving for omega, Initial residual = 0.00987506, Final residual = 0.000694331, No Iterations 2
bounding omega, min: -134796 max: 2.97899e+06 average: 2331.84
smoothSolver:  Solving for k, Initial residual = 0.00277984, Final residual = 0.000137604, No Iterations 2
bounding k, min: -0.00834028 max: 844.699 average: 0.41901
ExecutionTime = 322.43 s  ClockTime = 323 s

forceCoeffs forceCoeffs1 write:
    Coefficient	Total	Pressure	Viscous	Internal
    Cd:	-0.605509	-0.852091	0.246583	0
    Cd(f):	0.500241	0.389744	0.110498	0
    Cd(r):	-1.10575	-1.24183	0.136085	0
    Cl:	-1.60599	-1.63158	0.0255875	0
    Cl(f):	5.78535	5.77681	0.00854042	0
    Cl(r):	-7.39134	-7.40839	0.0170471	0
    CmPitch:	6.58834	6.5926	-0.00425334	0
    CmRoll:	0.802996	0.815789	-0.0127938	0
    CmYaw:	-0.302754	-0.426046	0.123291	0
    Cs:	-1.73818e-20	-2.06083e-20	3.22656e-21	0
    Cs(f):	-0.302754	-0.426046	0.123291	0
    Cs(r):	0.302754	0.426046	-0.123291	0

    writing force and moment coefficient files.

Time = 145

smoothSolver:  Solving for Ux, Initial residual = 0.00376291, Final residual = 0.000295636, No Iterations 2
smoothSolver:  Solving for Uy, Initial residual = 0.0119745, Final residual = 0.000911301, No Iterations 2
GAMG:  Solving for p, Initial residual = 0.19193, Final residual = 0.00760986, No Iterations 4
GAMG:  Solving for p, Initial residual = 0.00759661, Final residual = 0.000343272, No Iterations 14
GAMG:  Solving for p, Initial residual = 0.000404876, Final residual = 1.77669e-05, No Iterations 20
GAMG:  Solving for p, Initial residual = 4.62374e-05, Final residual = 2.2431e-06, No Iterations 14
time step continuity errors : sum local = 9.05728e-05, global = 5.86374e-06, cumulative = -0.00285537
smoothSolver:  Solving for omega, Initial residual = 0.0188164, Final residual = 0.000666391, No Iterations 2
smoothSolver:  Solving for k, Initial residual = 0.00288541, Final residual = 0.000147103, No Iterations 2
bounding k, min: -0.000684345 max: 895.208 average: 0.427341
ExecutionTime = 324.34 s  ClockTime = 325 s

forceCoeffs forceCoeffs1 write:
    Coefficient	Total	Pressure	Viscous	Internal
    Cd:	-0.605857	-0.852139	0.246282	0
    Cd(f):	0.518345	0.408002	0.110344	0
    Cd(r):	-1.1242	-1.26014	0.135938	0
    Cl:	-1.64255	-1.66814	0.0255948	0
    Cl(f):	5.79779	5.78924	0.00855307	0
    Cl(r):	-7.44034	-7.45738	0.0170417	0
    CmPitch:	6.61906	6.62331	-0.00424434	0
    CmRoll:	0.821274	0.834071	-0.0127974	0
    CmYaw:	-0.302929	-0.426069	0.123141	0
    Cs:	-1.70473e-20	-1.99657e-20	2.91845e-21	0
    Cs(f):	-0.302929	-0.426069	0.123141	0
    Cs(r):	0.302929	0.426069	-0.123141	0

    writing force and moment coefficient files.

Time = 146

smoothSolver:  Solving for Ux, Initial residual = 0.0037462, Final residual = 0.000294352, No Iterations 2
smoothSolver:  Solving for Uy, Initial residual = 0.0119436, Final residual = 0.000907407, No Iterations 2
GAMG:  Solving for p, Initial residual = 0.188353, Final residual = 0.00714357, No Iterations 4
GAMG:  Solving for p, Initial residual = 0.00712614, Final residual = 0.000304027, No Iterations 14
GAMG:  Solving for p, Initial residual = 0.000362157, Final residual = 1.61702e-05, No Iterations 20
GAMG:  Solving for p, Initial residual = 4.3587e-05, Final residual = 1.63292e-06, No Iterations 16
time step continuity errors : sum local = 6.72189e-05, global = 4.57769e-06, cumulative = -0.00285079
smoothSolver:  Solving for omega, Initial residual = 0.012135, Final residual = 0.00068346, No Iterations 2
smoothSolver:  Solving for k, Initial residual = 0.00300742, Final residual = 0.000155267, No Iterations 2
bounding k, min: -0.00814585 max: 946.771 average: 0.43633
ExecutionTime = 326.4 s  ClockTime = 327 s

forceCoeffs forceCoeffs1 write:
    Coefficient	Total	Pressure	Viscous	Internal
    Cd:	-0.797971	-1.04395	0.245977	0
    Cd(f):	0.571184	0.460997	0.110187	0
    Cd(r):	-1.36916	-1.50495	0.13579	0
    Cl:	-1.94034	-1.96594	0.0256033	0
    Cl(f):	5.7975	5.78894	0.0085644	0
    Cl(r):	-7.73784	-7.75488	0.0170389	0
    CmPitch:	6.76767	6.77191	-0.00423726	0
    CmRoll:	0.97017	0.982972	-0.0128017	0
    CmYaw:	-0.398986	-0.521974	0.122989	0
    Cs:	-1.60805e-20	-1.99496e-20	3.86917e-21	0
    Cs(f):	-0.398986	-0.521974	0.122989	0
    Cs(r):	0.398986	0.521974	-0.122989	0

    writing force and moment coefficient files.

Time = 147

smoothSolver:  Solving for Ux, Initial residual = 0.00373503, Final residual = 0.000292972, No Iterations 2
smoothSolver:  Solving for Uy, Initial residual = 0.0119357, Final residual = 0.000907364, No Iterations 2
GAMG:  Solving for p, Initial residual = 0.186862, Final residual = 0.00687895, No Iterations 4
GAMG:  Solving for p, Initial residual = 0.00690315, Final residual = 0.000281215, No Iterations 14
GAMG:  Solving for p, Initial residual = 0.000337611, Final residual = 1.53775e-05, No Iterations 18
GAMG:  Solving for p, Initial residual = 4.47216e-05, Final residual = 1.75794e-06, No Iterations 16
time step continuity errors : sum local = 7.2831e-05, global = 6.25576e-06, cumulative = -0.00284454
smoothSolver:  Solving for omega, Initial residual = 0.0103991, Final residual = 0.000686512, No Iterations 2
smoothSolver:  Solving for k, Initial residual = 0.00315956, Final residual = 0.000164113, No Iterations 2
bounding k, min: -0.0165499 max: 977.777 average: 0.445682
ExecutionTime = 328.42 s  ClockTime = 329 s

forceCoeffs forceCoeffs1 write:
    Coefficient	Total	Pressure	Viscous	Internal
    Cd:	-1.21206	-1.45771	0.245649	0
    Cd(f):	0.628134	0.518113	0.11002	0
    Cd(r):	-1.8402	-1.97582	0.135628	0
    Cl:	-2.46833	-2.49394	0.0256083	0
    Cl(f):	5.77646	5.76788	0.00857434	0
    Cl(r):	-8.24479	-8.26182	0.017034	0
    CmPitch:	7.01062	7.01485	-0.00422982	0
    CmRoll:	1.23416	1.24697	-0.0128042	0
    CmYaw:	-0.606031	-0.728856	0.122824	0
    Cs:	-1.74232e-20	-2.00592e-20	2.63597e-21	0
    Cs(f):	-0.606031	-0.728856	0.122824	0
    Cs(r):	0.606031	0.728856	-0.122824	0

    writing force and moment coefficient files.

Time = 148

smoothSolver:  Solving for Ux, Initial residual = 0.00371463, Final residual = 0.000292247, No Iterations 2
smoothSolver:  Solving for Uy, Initial residual = 0.0118946, Final residual = 0.000907191, No Iterations 2
GAMG:  Solving for p, Initial residual = 0.179144, Final residual = 0.0066552, No Iterations 4
GAMG:  Solving for p, Initial residual = 0.00669343, Final residual = 0.000277851, No Iterations 14
GAMG:  Solving for p, Initial residual = 0.000331326, Final residual = 1.56566e-05, No Iterations 18
GAMG:  Solving for p, Initial residual = 4.55519e-05, Final residual = 1.80316e-06, No Iterations 16
time step continuity errors : sum local = 7.34318e-05, global = 6.40214e-06, cumulative = -0.00283813
smoothSolver:  Solving for omega, Initial residual = 0.00992305, Final residual = 0.000683246, No Iterations 2
smoothSolver:  Solving for k, Initial residual = 0.00330542, Final residual = 0.000169338, No Iterations 2
bounding k, min: -0.00148727 max: 1020.07 average: 0.455863
ExecutionTime = 330.48 s  ClockTime = 331 s

forceCoeffs forceCoeffs1 write:
    Coefficient	Total	Pressure	Viscous	Internal
    Cd:	-1.72828	-1.97356	0.245285	0
    Cd(f):	0.643886	0.534049	0.109837	0
    Cd(r):	-2.37217	-2.50761	0.135449	0
    Cl:	-3.01605	-3.04166	0.0256117	0
    Cl(f):	5.74023	5.73165	0.00858251	0
    Cl(r):	-8.75628	-8.77331	0.0170292	0
    CmPitch:	7.24826	7.25248	-0.00422335	0
    CmRoll:	1.50803	1.52083	-0.0128059	0
    CmYaw:	-0.86414	-0.986782	0.122643	0
    Cs:	-1.68492e-20	-1.96402e-20	2.79103e-21	0
    Cs(f):	-0.86414	-0.986782	0.122643	0
    Cs(r):	0.86414	0.986782	-0.122643	0

    writing force and moment coefficient files.

Time = 149

smoothSolver:  Solving for Ux, Initial residual = 0.00370556, Final residual = 0.000290479, No Iterations 2
smoothSolver:  Solving for Uy, Initial residual = 0.0118814, Final residual = 0.00090363, No Iterations 2
GAMG:  Solving for p, Initial residual = 0.192638, Final residual = 0.00712755, No Iterations 4
GAMG:  Solving for p, Initial residual = 0.00722666, Final residual = 0.000304482, No Iterations 14
GAMG:  Solving for p, Initial residual = 0.000362422, Final residual = 1.7859e-05, No Iterations 18
GAMG:  Solving for p, Initial residual = 4.74369e-05, Final residual = 1.77868e-06, No Iterations 16
time step continuity errors : sum local = 6.7754e-05, global = 6.6743e-06, cumulative = -0.00283146
smoothSolver:  Solving for omega, Initial residual = 0.00976775, Final residual = 0.000683259, No Iterations 2
smoothSolver:  Solving for k, Initial residual = 0.00333767, Final residual = 0.000181947, No Iterations 2
bounding k, min: -0.00926706 max: 1019.96 average: 0.467105
ExecutionTime = 332.46 s  ClockTime = 333 s

forceCoeffs forceCoeffs1 write:
    Coefficient	Total	Pressure	Viscous	Internal
    Cd:	-2.3218	-2.56668	0.244879	0
    Cd(f):	0.613396	0.503763	0.109633	0
    Cd(r):	-2.9352	-3.07044	0.135245	0
    Cl:	-3.54859	-3.57421	0.0256122	0
    Cl(f):	5.69035	5.68176	0.00858999	0
    Cl(r):	-9.23894	-9.25596	0.0170222	0
    CmPitch:	7.46464	7.46886	-0.00421611	0
    CmRoll:	1.7743	1.7871	-0.0128061	0
    CmYaw:	-1.1609	-1.28334	0.122439	0
    Cs:	-1.70915e-20	-1.90624e-20	1.97097e-21	0
    Cs(f):	-1.1609	-1.28334	0.122439	0
    Cs(r):	1.1609	1.28334	-0.122439	0

    writing force and moment coefficient files.

Time = 150

smoothSolver:  Solving for Ux, Initial residual = 0.00368875, Final residual = 0.000289435, No Iterations 2
smoothSolver:  Solving for Uy, Initial residual = 0.0118521, Final residual = 0.000903282, No Iterations 2
GAMG:  Solving for p, Initial residual = 0.196139, Final residual = 0.00752247, No Iterations 4
GAMG:  Solving for p, Initial residual = 0.00759891, Final residual = 0.00030691, No Iterations 14
GAMG:  Solving for p, Initial residual = 0.000369146, Final residual = 1.33674e-05, No Iterations 20
GAMG:  Solving for p, Initial residual = 4.26177e-05, Final residual = 1.91588e-06, No Iterations 16
time step continuity errors : sum local = 6.86059e-05, global = 5.5977e-06, cumulative = -0.00282586
smoothSolver:  Solving for omega, Initial residual = 0.0097304, Final residual = 0.000680159, No Iterations 2
smoothSolver:  Solving for k, Initial residual = 0.00346723, Final residual = 0.000194509, No Iterations 2
bounding k, min: -0.0246859 max: 1020.14 average: 0.478443
ExecutionTime = 334.46 s  ClockTime = 335 s

forceCoeffs forceCoeffs1 write:
    Coefficient	Total	Pressure	Viscous	Internal
    Cd:	-2.92272	-3.16715	0.244433	0
    Cd(f):	0.641506	0.532095	0.109411	0
    Cd(r):	-3.56422	-3.69924	0.135022	0
    Cl:	-4.20573	-4.23134	0.025611	0
    Cl(f):	5.63501	5.62642	0.00859604	0
    Cl(r):	-9.84074	-9.85776	0.017015	0
    CmPitch:	7.73788	7.74209	-0.00420947	0
    CmRoll:	2.10286	2.11567	-0.0128055	0
    CmYaw:	-1.46136	-1.58357	0.122217	0
    Cs:	-1.54048e-20	-1.78513e-20	2.44652e-21	0
    Cs(f):	-1.46136	-1.58357	0.122217	0
    Cs(r):	1.46136	1.58357	-0.122217	0

    writing force and moment coefficient files.

Time = 151

smoothSolver:  Solving for Ux, Initial residual = 0.00367375, Final residual = 0.000288247, No Iterations 2
smoothSolver:  Solving for Uy, Initial residual = 0.0118306, Final residual = 0.000901333, No Iterations 2
GAMG:  Solving for p, Initial residual = 0.201659, Final residual = 0.00763908, No Iterations 4
GAMG:  Solving for p, Initial residual = 0.00773054, Final residual = 0.000381207, No Iterations 14
GAMG:  Solving for p, Initial residual = 0.000443345, Final residual = 1.89433e-05, No Iterations 20
GAMG:  Solving for p, Initial residual = 5.00665e-05, Final residual = 2.05667e-06, No Iterations 18
time step continuity errors : sum local = 7.03075e-05, global = 4.51866e-06, cumulative = -0.00282134
smoothSolver:  Solving for omega, Initial residual = 0.00972799, Final residual = 0.000679907, No Iterations 2
smoothSolver:  Solving for k, Initial residual = 0.00358431, Final residual = 0.00020252, No Iterations 2
bounding k, min: -0.0115551 max: 1016.8 average: 0.490032
ExecutionTime = 336.5 s  ClockTime = 337 s

forceCoeffs forceCoeffs1 write:
    Coefficient	Total	Pressure	Viscous	Internal
    Cd:	-3.44709	-3.69105	0.243952	0
    Cd(f):	0.744416	0.635244	0.109173	0
    Cd(r):	-4.19151	-4.32629	0.134779	0
    Cl:	-4.93593	-4.96153	0.0256066	0
    Cl(f):	5.57923	5.57063	0.00860077	0
    Cl(r):	-10.5152	-10.5322	0.0170058	0
    CmPitch:	8.0472	8.0514	-0.00420251	0
    CmRoll:	2.46796	2.48077	-0.0128033	0
    CmYaw:	-1.72355	-1.84552	0.121976	0
    Cs:	-1.44021e-20	-1.6461e-20	2.05886e-21	0
    Cs(f):	-1.72355	-1.84552	0.121976	0
    Cs(r):	1.72355	1.84552	-0.121976	0

    writing force and moment coefficient files.

Time = 152

smoothSolver:  Solving for Ux, Initial residual = 0.00366322, Final residual = 0.000287244, No Iterations 2
smoothSolver:  Solving for Uy, Initial residual = 0.0118153, Final residual = 0.000899291, No Iterations 2
GAMG:  Solving for p, Initial residual = 0.209159, Final residual = 0.00764812, No Iterations 4
GAMG:  Solving for p, Initial residual = 0.00774378, Final residual = 0.000297935, No Iterations 16
GAMG:  Solving for p, Initial residual = 0.000369525, Final residual = 1.34451e-05, No Iterations 20
GAMG:  Solving for p, Initial residual = 3.69506e-05, Final residual = 1.60688e-06, No Iterations 16
time step continuity errors : sum local = 5.48601e-05, global = 3.2858e-06, cumulative = -0.00281806
smoothSolver:  Solving for omega, Initial residual = 0.0097194, Final residual = 0.000685505, No Iterations 2
smoothSolver:  Solving for k, Initial residual = 0.00369202, Final residual = 0.000219767, No Iterations 2
bounding k, min: -0.00591515 max: 1123.71 average: 0.502163
ExecutionTime = 338.54 s  ClockTime = 339 s

forceCoeffs forceCoeffs1 write:
    Coefficient	Total	Pressure	Viscous	Internal
    Cd:	-3.84893	-4.09237	0.243445	0
    Cd(f):	0.894148	0.785224	0.108924	0
    Cd(r):	-4.74308	-4.8776	0.134521	0
    Cl:	-5.63722	-5.66282	0.0255973	0
    Cl(f):	5.53008	5.52148	0.00860422	0
    Cl(r):	-11.1673	-11.1843	0.0169931	0
    CmPitch:	8.34869	8.35289	-0.00419444	0
    CmRoll:	2.81861	2.83141	-0.0127987	0
    CmYaw:	-1.92446	-2.04619	0.121723	0
    Cs:	-1.27057e-20	-1.53265e-20	2.62079e-21	0
    Cs(f):	-1.92446	-2.04619	0.121723	0
    Cs(r):	1.92446	2.04619	-0.121723	0

    writing force and moment coefficient files.

Time = 153

smoothSolver:  Solving for Ux, Initial residual = 0.00364507, Final residual = 0.00028655, No Iterations 2
smoothSolver:  Solving for Uy, Initial residual = 0.0117842, Final residual = 0.000900385, No Iterations 2
GAMG:  Solving for p, Initial residual = 0.214231, Final residual = 0.00775169, No Iterations 4
