/*---------------------------------------------------------------------------*\
| =========                 |                                                 |
| \\      /  F ield         | OpenFOAM: The Open Source CFD Toolbox           |
|  \\    /   O peration     | Version:  2212                                  |
|   \\  /    A nd           | Website:  www.openfoam.com                      |
|    \\/     M anipulation  |                                                 |
\*---------------------------------------------------------------------------*/
Build  : _70874860-20230612 OPENFOAM=2212 patch=230612 version=2212
Arch   : "LSB;label=32;scalar=64"
Exec   : simpleFoam
Date   : Nov 27 2023
Time   : 11:23:45
Host   : maciek-gv62-7rc
PID    : 83001
/*---------------------------------------------------------------------------*\
| =========                 |                                                 |
| \\      /  F ield         | OpenFOAM: The Open Source CFD Toolbox           |
|  \\    /   O peration     | Version:  2212                                  |
|   \\  /    A nd           | Website:  www.openfoam.com                      |
|    \\/     M anipulation  |                                                 |
\*---------------------------------------------------------------------------*/
Build  : _70874860-20230612 OPENFOAM=2212 patch=230612 version=2212
Arch   : "LSB;label=32;scalar=64"
Exec   : simpleFoam
Date   : Nov 27 2023
Time   : 11:23:45
Host   : maciek-gv62-7rc
PID    : 83000
I/O    : uncollated
I/O    : uncollated
Case   : /home/maciek/repository/airSupport/run/NACA0015_AoA[0-3]_k-omega
nProcs : 1
trapFpe: Floating point exception trapping enabled (FOAM_SIGFPE).
fileModificationChecking : Monitoring run-time modified files using timeStampMaster (fileModificationSkew 5, maxFileModificationPolls 20)
Case   : /home/maciek/repository/airSupport/run/NACA0015_AoA[0-3]_k-omega
nProcs : 1
trapFpe: Floating point exception trapping enabled (FOAM_SIGFPE).
fileModificationChecking : Monitoring run-time modified files using timeStampMaster (fileModificationSkew 5, maxFileModificationPolls 20)
allowSystemOperations : Allowing user-supplied system call operations

// * * * * * * * * * * * * * * * * * * * * * * * * * * * * * * * * * * * * * //
Create time

allowSystemOperations : Allowing user-supplied system call operations

// * * * * * * * * * * * * * * * * * * * * * * * * * * * * * * * * * * * * * //
Create time

Create mesh for time = 0
Create mesh for time = 0


SIMPLE: convergence criteria
    field U	 tolerance 0.0001
    field p	 tolerance 0.001
    field "(k|epsilon|omega)"	 tolerance 0.001

Reading field p

Reading field U



SIMPLE: convergence criteria
    field U	 tolerance 0.0001
    field p	 tolerance 0.001
    field "(k|epsilon|omega)"	 tolerance 0.001

Reading field p

Reading field U

Reading/calculating face flux field phi

Reading/calculating face flux field phi

Selecting incompressible transport model Newtonian
Selecting turbulence model type RAS
Selecting RAS turbulence model kOmega
Selecting incompressible transport model Newtonian
Selecting turbulence model type RAS
Selecting RAS turbulence model kOmega
bounding k, min: 0 max: 0 average: 0
bounding k, min: 0 max: 0 average: 0
RAS
{
    RASModel        kOmega;
    turbulence      on;
    printCoeffs     on;
    betaStar        0.09;
    beta            0.072;
    gamma           0.52;
    alphaK          0.5;
    alphaOmega      0.5;
}

No MRF models present

No finite volume options present

Starting time loop

RAS
{
    RASModel        kOmega;
    turbulence      on;
    printCoeffs     on;
    betaStar        0.09;
    beta            0.072;
    gamma           0.52;
    alphaK          0.5;
    alphaOmega      0.5;
}

No MRF models present

No finite volume options present

Starting time loop

forceCoeffs forceCoeffs1:
    rho: rhoInf
    Freestream density (rhoInf) set to 1
    Not including porosity effects
    magUInf: 10
    lRef   : 1
    Aref   : 1
    rhoInf : 1
    Selecting all coefficients
    - Drag force: Cd
    - Drag force front: Cd(f)
    - Drag force rear: Cd(r)
    - Lift force: Cl
    - Lift force front: Cl(f)
    - Lift force rear: Cl(r)
    - Pitch moment: CmPitch
    - Roll moment: CmRoll
    - Yaw moment: CmYaw
    - Side force: Cs
    - Side force front: Cs(f)
    - Side force rear: Cs(r)


Time = 1

forceCoeffs forceCoeffs1:
    rho: rhoInf
    Freestream density (rhoInf) set to 1
    Not including porosity effects
    magUInf: 10
    lRef   : 1
    Aref   : 1
    rhoInf : 1
    Selecting all coefficients
    - Drag force: Cd
    - Drag force front: Cd(f)
    - Drag force rear: Cd(r)
    - Lift force: Cl
    - Lift force front: Cl(f)
    - Lift force rear: Cl(r)
    - Pitch moment: CmPitch
    - Roll moment: CmRoll
    - Yaw moment: CmYaw
    - Side force: Cs
    - Side force front: Cs(f)
    - Side force rear: Cs(r)


Time = 1

smoothSolver:  Solving for Ux, Initial residual = 1, Final residual = 0.0507115, No Iterations 2
smoothSolver:  Solving for Ux, Initial residual = 1, Final residual = 0.0507115, No Iterations 2
smoothSolver:  Solving for Uy, Initial residual = 1, Final residual = 0.0524617, No Iterations 2
smoothSolver:  Solving for Uy, Initial residual = 1, Final residual = 0.0524617, No Iterations 2
GAMG:  Solving for p, Initial residual = 1, Final residual = 0.0414235, No Iterations 32
GAMG:  Solving for p, Initial residual = 1, Final residual = 0.0414235, No Iterations 32
GAMG:  Solving for p, Initial residual = 0.00018336, Final residual = 8.38096e-06, No Iterations 16
GAMG:  Solving for p, Initial residual = 0.00018336, Final residual = 8.38096e-06, No Iterations 16
GAMG:  Solving for p, Initial residual = 3.55279e-05, Final residual = 1.56633e-06, No Iterations 19
GAMG:  Solving for p, Initial residual = 3.55279e-05, Final residual = 1.56633e-06, No Iterations 19
GAMG:  Solving for p, Initial residual = 1.28302e-05, Final residual = 5.83924e-07, No Iterations 19
GAMG:  Solving for p, Initial residual = 1.28302e-05, Final residual = 5.83924e-07, No Iterations 19
time step continuity errors : sum local = 0.000716771, global = 9.90152e-06, cumulative = 9.90152e-06
time step continuity errors : sum local = 0.000716771, global = 9.90152e-06, cumulative = 9.90152e-06
smoothSolver:  Solving for omega, Initial residual = 0.00596065, Final residual = 0.000436607, No Iterations 2
bounding omega, min: -158.294 max: 47296.4 average: 87.8174
smoothSolver:  Solving for omega, Initial residual = 0.00596065, Final residual = 0.000436607, No Iterations 2
bounding omega, min: -158.294 max: 47296.4 average: 87.8174
smoothSolver:  Solving for k, Initial residual = 1, Final residual = 0.0454584, No Iterations 2
bounding k, min: -3.56854e-09 max: 2.0319e-07 average: 1.50155e-09
smoothSolver:  Solving for k, Initial residual = 1, Final residual = 0.0454584, No Iterations 2
ExecutionTime = 2.53 s  ClockTime = 2 s

bounding k, min: -3.56854e-09 max: 2.0319e-07 average: 1.50155e-09
ExecutionTime = 2.54 s  ClockTime = 2 s

forceCoeffs forceCoeffs1 write:
    Coefficient	Total	Pressure	Viscous	Internal
    Cd:	-13.5109	-13.5287	0.0177562	0
    Cd(f):	-6.76375	-6.77263	0.00887756	0
    Cd(r):	-6.74717	-6.75605	0.0088786	0
    Cl:	0.0165797	0.0165787	1.03387e-06	0
    Cl(f):	0.000668268	0.000667941	3.27182e-07	0
    Cl(r):	0.0159114	0.0159107	7.06685e-07	0
    CmPitch:	-0.00762158	-0.00762139	-1.89752e-07	0
    CmRoll:	-0.00828985	-0.00828933	-5.16934e-07	0
    CmYaw:	-6.75546	-6.76434	0.00887808	0
    Cs:	3.85766e-19	4.09198e-19	-2.34326e-20	0
    Cs(f):	-6.75546	-6.76434	0.00887808	0
    Cs(r):	6.75546	6.76434	-0.00887808	0

    writing force and moment coefficient files.

Time = 2

forceCoeffs forceCoeffs1 write:
    Coefficient	Total	Pressure	Viscous	Internal
    Cd:	-13.5109	-13.5287	0.0177562	0
    Cd(f):	-6.76375	-6.77263	0.00887756	0
    Cd(r):	-6.74717	-6.75605	0.0088786	0
    Cl:	0.0165797	0.0165787	1.03387e-06	0
    Cl(f):	0.000668268	0.000667941	3.27182e-07	0
    Cl(r):	0.0159114	0.0159107	7.06685e-07	0
    CmPitch:	-0.00762158	-0.00762139	-1.89752e-07	0
    CmRoll:	-0.00828985	-0.00828933	-5.16934e-07	0
    CmYaw:	-6.75546	-6.76434	0.00887808	0
    Cs:	3.85766e-19	4.09198e-19	-2.34326e-20	0
    Cs(f):	-6.75546	-6.76434	0.00887808	0
    Cs(r):	6.75546	6.76434	-0.00887808	0

    writing force and moment coefficient files.

Time = 2

smoothSolver:  Solving for Ux, Initial residual = 0.971217, Final residual = 0.0612019, No Iterations 2
smoothSolver:  Solving for Ux, Initial residual = 0.971217, Final residual = 0.0612019, No Iterations 2
smoothSolver:  Solving for Uy, Initial residual = 0.780616, Final residual = 0.0475491, No Iterations 2
smoothSolver:  Solving for Uy, Initial residual = 0.780616, Final residual = 0.0475491, No Iterations 2
GAMG:  Solving for p, Initial residual = 0.00357664, Final residual = 0.00014308, No Iterations 5
GAMG:  Solving for p, Initial residual = 0.00357664, Final residual = 0.00014308, No Iterations 5
GAMG:  Solving for p, Initial residual = 0.000300494, Final residual = 1.27765e-05, No Iterations 16
GAMG:  Solving for p, Initial residual = 0.000300494, Final residual = 1.27765e-05, No Iterations 16
GAMG:  Solving for p, Initial residual = 0.000500363, Final residual = 2.20797e-05, No Iterations 20
GAMG:  Solving for p, Initial residual = 0.000500363, Final residual = 2.20797e-05, No Iterations 20
GAMG:  Solving for p, Initial residual = 4.2074e-05, Final residual = 1.41378e-06, No Iterations 21
time step continuity errors : sum local = 0.00545069, global = -0.000571362, cumulative = -0.000561461
GAMG:  Solving for p, Initial residual = 4.2074e-05, Final residual = 1.41378e-06, No Iterations 21
time step continuity errors : sum local = 0.00545069, global = -0.000571362, cumulative = -0.000561461
smoothSolver:  Solving for omega, Initial residual = 0.954895, Final residual = 0.0341661, No Iterations 2
bounding omega, min: -44569.8 max: 3.18653e+06 average: 1394.36
smoothSolver:  Solving for omega, Initial residual = 0.954895, Final residual = 0.0341661, No Iterations 2
bounding omega, min: -44569.8 max: 3.18653e+06 average: 1394.36
smoothSolver:  Solving for k, Initial residual = 0.99883, Final residual = 0.0366662, No Iterations 2
bounding k, min: -0.000670271 max: 0.00397246 average: 3.16174e-07
ExecutionTime = 3.71 s  ClockTime = 4 s

smoothSolver:  Solving for k, Initial residual = 0.99883, Final residual = 0.0366662, No Iterations 2
bounding k, min: -0.000670271 max: 0.00397246 average: 3.16174e-07
ExecutionTime = 3.72 s  ClockTime = 4 s

forceCoeffs forceCoeffs1 write:
    Coefficient	Total	Pressure	Viscous	Internal
    Cd:	-8.09446	-8.10338	0.00891978	0
    Cd(f):	-4.06419	-4.06866	0.00447138	0
    Cd(r):	-4.03027	-4.03472	0.00444841	0
    Cl:	0.0339138	0.0339368	-2.29695e-05	0
    Cl(f):	0.0020715	0.00208075	-9.25831e-06	0
    Cl(r):	0.0318423	0.031856	-1.37112e-05	0
    CmPitch:	-0.0148854	-0.0148876	2.22645e-06	0
    CmRoll:	-0.0169569	-0.0169684	1.14848e-05	0
    CmYaw:	-4.04723	-4.05169	0.00445989	0
    Cs:	1.45821e-19	2.79705e-19	-1.33884e-19	0
    Cs(f):	-4.04723	-4.05169	0.00445989	0
    Cs(r):	4.04723	4.05169	-0.00445989	0

    writing force and moment coefficient files.

Time = 3

forceCoeffs forceCoeffs1 write:
    Coefficient	Total	Pressure	Viscous	Internal
    Cd:	-8.09446	-8.10338	0.00891978	0
    Cd(f):	-4.06419	-4.06866	0.00447138	0
    Cd(r):	-4.03027	-4.03472	0.00444841	0
    Cl:	0.0339138	0.0339368	-2.29695e-05	0
    Cl(f):	0.0020715	0.00208075	-9.25831e-06	0
    Cl(r):	0.0318423	0.031856	-1.37112e-05	0
    CmPitch:	-0.0148854	-0.0148876	2.22645e-06	0
    CmRoll:	-0.0169569	-0.0169684	1.14848e-05	0
    CmYaw:	-4.04723	-4.05169	0.00445989	0
    Cs:	1.45821e-19	2.79705e-19	-1.33884e-19	0
    Cs(f):	-4.04723	-4.05169	0.00445989	0
    Cs(r):	4.04723	4.05169	-0.00445989	0

    writing force and moment coefficient files.

Time = 3

smoothSolver:  Solving for Ux, Initial residual = 0.115339, Final residual = 0.00510096, No Iterations 2
smoothSolver:  Solving for Uy, Initial residual = 0.166678, Final residual = 0.00869278, No Iterations 2
smoothSolver:  Solving for Ux, Initial residual = 0.115339, Final residual = 0.00510096, No Iterations 2
smoothSolver:  Solving for Uy, Initial residual = 0.166678, Final residual = 0.00869278, No Iterations 2
GAMG:  Solving for p, Initial residual = 0.762374, Final residual = 0.035318, No Iterations 24
GAMG:  Solving for p, Initial residual = 0.762374, Final residual = 0.035318, No Iterations 24
GAMG:  Solving for p, Initial residual = 0.00136299, Final residual = 6.31151e-05, No Iterations 32
GAMG:  Solving for p, Initial residual = 0.00136299, Final residual = 6.31151e-05, No Iterations 32
GAMG:  Solving for p, Initial residual = 0.000124679, Final residual = 5.99853e-06, No Iterations 50
GAMG:  Solving for p, Initial residual = 0.000124679, Final residual = 5.99853e-06, No Iterations 50
GAMG:  Solving for p, Initial residual = 2.52172e-05, Final residual = 1.20401e-06, No Iterations 40
time step continuity errors : sum local = 0.0168064, global = -0.000503848, cumulative = -0.00106531
GAMG:  Solving for p, Initial residual = 2.52172e-05, Final residual = 1.20401e-06, No Iterations 40
time step continuity errors : sum local = 0.0168064, global = -0.000503848, cumulative = -0.00106531
smoothSolver:  Solving for omega, Initial residual = 0.21459, Final residual = 0.00516378, No Iterations 2
bounding omega, min: -310561 max: 8.06024e+06 average: 2114.36
smoothSolver:  Solving for k, Initial residual = 0.336173, Final residual = 0.0187238, No Iterations 2
bounding k, min: -0.000539182 max: 0.0338989 average: 4.98957e-06
ExecutionTime = 6.04 s  ClockTime = 6 s

smoothSolver:  Solving for omega, Initial residual = 0.21459, Final residual = 0.00516378, No Iterations 2
bounding omega, min: -310561 max: 8.06024e+06 average: 2114.36
forceCoeffs forceCoeffs1 write:
    Coefficient	Total	Pressure	Viscous	Internal
    Cd:	44.0518	44.0372	0.0146052	0
    Cd(f):	25.4889	25.4815	0.0073905	0
    Cd(r):	18.5629	18.5557	0.00721471	0
    Cl:	-6.92599	-6.92581	-0.000175785	0
    Cl(f):	0.160074	0.160144	-6.96811e-05	0
    Cl(r):	-7.08606	-7.08595	-0.000106104	0
    CmPitch:	3.62307	3.62305	1.82116e-05	0
    CmRoll:	3.46299	3.46291	8.78927e-05	0
    CmYaw:	22.0259	22.0186	0.00730261	0
    Cs:	-8.30393e-18	-9.30038e-18	9.9645e-19	0
    Cs(f):	22.0259	22.0186	0.00730261	0
    Cs(r):	-22.0259	-22.0186	-0.00730261	0

    writing force and moment coefficient files.

Time = 4

smoothSolver:  Solving for k, Initial residual = 0.336173, Final residual = 0.0187238, No Iterations 2
bounding k, min: -0.000539182 max: 0.0338989 average: 4.98957e-06
ExecutionTime = 6.09 s  ClockTime = 6 s

forceCoeffs forceCoeffs1 write:
    Coefficient	Total	Pressure	Viscous	Internal
    Cd:	44.0518	44.0372	0.0146052	0
    Cd(f):	25.4889	25.4815	0.0073905	0
    Cd(r):	18.5629	18.5557	0.00721471	0
    Cl:	-6.92599	-6.92581	-0.000175785	0
    Cl(f):	0.160074	0.160144	-6.96811e-05	0
    Cl(r):	-7.08606	-7.08595	-0.000106104	0
    CmPitch:	3.62307	3.62305	1.82116e-05	0
    CmRoll:	3.46299	3.46291	8.78927e-05	0
    CmYaw:	22.0259	22.0186	0.00730261	0
    Cs:	-8.30393e-18	-9.30038e-18	9.9645e-19	0
    Cs(f):	22.0259	22.0186	0.00730261	0
    Cs(r):	-22.0259	-22.0186	-0.00730261	0

    writing force and moment coefficient files.

Time = 4

smoothSolver:  Solving for Ux, Initial residual = 0.0973573, Final residual = 0.0076388, No Iterations 2
smoothSolver:  Solving for Uy, Initial residual = 0.151022, Final residual = 0.00309421, No Iterations 4
smoothSolver:  Solving for Ux, Initial residual = 0.0973573, Final residual = 0.0076388, No Iterations 2
smoothSolver:  Solving for Uy, Initial residual = 0.151022, Final residual = 0.00309421, No Iterations 4
GAMG:  Solving for p, Initial residual = 0.374757, Final residual = 0.0175476, No Iterations 15
GAMG:  Solving for p, Initial residual = 0.374757, Final residual = 0.0175476, No Iterations 15
GAMG:  Solving for p, Initial residual = 0.0021627, Final residual = 0.000103874, No Iterations 14
GAMG:  Solving for p, Initial residual = 0.0021627, Final residual = 0.000103874, No Iterations 14
GAMG:  Solving for p, Initial residual = 0.000275255, Final residual = 1.10657e-05, No Iterations 14
GAMG:  Solving for p, Initial residual = 0.000275255, Final residual = 1.10657e-05, No Iterations 14
GAMG:  Solving for p, Initial residual = 0.000100788, Final residual = 4.17689e-06, No Iterations 15
time step continuity errors : sum local = 0.0321574, global = -0.000513565, cumulative = -0.00157887
GAMG:  Solving for p, Initial residual = 0.000100788, Final residual = 4.17689e-06, No Iterations 15
time step continuity errors : sum local = 0.0321574, global = -0.000513565, cumulative = -0.00157887
smoothSolver:  Solving for omega, Initial residual = 0.15643, Final residual = 0.00235594, No Iterations 2
bounding omega, min: -61276 max: 4.09888e+06 average: 2413.19
smoothSolver:  Solving for k, Initial residual = 0.0342239, Final residual = 0.00292141, No Iterations 2
bounding k, min: -0.000294745 max: 0.067886 average: 2.95297e-05
ExecutionTime = 7.19 s  ClockTime = 7 s

smoothSolver:  Solving for omega, Initial residual = 0.15643, Final residual = 0.00235594, No Iterations 2
bounding omega, min: -61276 max: 4.09888e+06 average: 2413.19
forceCoeffs forceCoeffs1 write:
    Coefficient	Total	Pressure	Viscous	Internal
    Cd:	398.853	398.818	0.0356881	0
    Cd(f):	251.749	251.731	0.0179534	0
    Cd(r):	147.105	147.087	0.0177348	0
    Cl:	-104.644	-104.644	-0.000218638	0
    Cl(f):	-1.10755	-1.1074	-0.000152504	0
    Cl(r):	-103.536	-103.536	-6.61334e-05	0
    CmPitch:	51.2144	51.2144	-4.31854e-05	0
    CmRoll:	52.3219	52.3218	0.000109319	0
    CmYaw:	199.427	199.409	0.0178441	0
    Cs:	-6.78259e-17	-6.96186e-17	1.79265e-18	0
    Cs(f):	199.427	199.409	0.0178441	0
    Cs(r):	-199.427	-199.409	-0.0178441	0

    writing force and moment coefficient files.

Time = 5

smoothSolver:  Solving for k, Initial residual = 0.0342239, Final residual = 0.00292141, No Iterations 2
bounding k, min: -0.000294745 max: 0.067886 average: 2.95297e-05
ExecutionTime = 7.28 s  ClockTime = 7 s

forceCoeffs forceCoeffs1 write:
    Coefficient	Total	Pressure	Viscous	Internal
    Cd:	398.853	398.818	0.0356881	0
    Cd(f):	251.749	251.731	0.0179534	0
    Cd(r):	147.105	147.087	0.0177348	0
    Cl:	-104.644	-104.644	-0.000218638	0
    Cl(f):	-1.10755	-1.1074	-0.000152504	0
    Cl(r):	-103.536	-103.536	-6.61334e-05	0
    CmPitch:	51.2144	51.2144	-4.31854e-05	0
    CmRoll:	52.3219	52.3218	0.000109319	0
    CmYaw:	199.427	199.409	0.0178441	0
    Cs:	-6.78259e-17	-6.96186e-17	1.79265e-18	0
    Cs(f):	199.427	199.409	0.0178441	0
    Cs(r):	-199.427	-199.409	-0.0178441	0

    writing force and moment coefficient files.

Time = 5

smoothSolver:  Solving for Ux, Initial residual = 0.0780729, Final residual = 0.007239, No Iterations 2
smoothSolver:  Solving for Uy, Initial residual = 0.237313, Final residual = 0.0162843, No Iterations 2
smoothSolver:  Solving for Ux, Initial residual = 0.0780729, Final residual = 0.007239, No Iterations 2
smoothSolver:  Solving for Uy, Initial residual = 0.237313, Final residual = 0.0162843, No Iterations 2
GAMG:  Solving for p, Initial residual = 0.13822, Final residual = 0.00658145, No Iterations 9
GAMG:  Solving for p, Initial residual = 0.13822, Final residual = 0.00658145, No Iterations 9
GAMG:  Solving for p, Initial residual = 0.00369875, Final residual = 0.000150323, No Iterations 20
GAMG:  Solving for p, Initial residual = 0.00369875, Final residual = 0.000150323, No Iterations 20
GAMG:  Solving for p, Initial residual = 0.000313271, Final residual = 1.14464e-05, No Iterations 18
GAMG:  Solving for p, Initial residual = 0.000313271, Final residual = 1.14464e-05, No Iterations 18
GAMG:  Solving for p, Initial residual = 8.63331e-05, Final residual = 3.60749e-06, No Iterations 17
time step continuity errors : sum local = 0.0193332, global = -0.000357921, cumulative = -0.0019368
GAMG:  Solving for p, Initial residual = 8.63331e-05, Final residual = 3.60749e-06, No Iterations 17
time step continuity errors : sum local = 0.0193332, global = -0.000357921, cumulative = -0.0019368
smoothSolver:  Solving for omega, Initial residual = 0.118708, Final residual = 0.00308037, No Iterations 2
bounding omega, min: -114747 max: 2.10135e+06 average: 2900.88
smoothSolver:  Solving for k, Initial residual = 0.0104381, Final residual = 0.000167376, No Iterations 4
bounding k, min: -0.00191977 max: 0.166926 average: 0.000167371
smoothSolver:  Solving for omega, Initial residual = 0.118708, Final residual = 0.00308037, No Iterations 2
bounding omega, min: -114747 max: 2.10135e+06 average: 2900.88
ExecutionTime = 8.6 s  ClockTime = 8 s

forceCoeffs forceCoeffs1 write:
    Coefficient	Total	Pressure	Viscous	Internal
    Cd:	640.167	640.115	0.0516041	0
    Cd(f):	344.046	344.02	0.0259792	0
    Cd(r):	296.121	296.095	0.0256249	0
    Cl:	-47.9248	-47.9245	-0.000354322	0
    Cl(f):	-7.348	-7.3478	-0.000204737	0
    Cl(r):	-40.5768	-40.5767	-0.000149585	0
    CmPitch:	16.6144	16.6144	-2.75759e-05	0
    CmRoll:	23.9624	23.9622	0.000177161	0
    CmYaw:	320.083	320.058	0.025802	0
    Cs:	-1.02306e-16	-1.04134e-16	1.82833e-18	0
    Cs(f):	320.083	320.058	0.025802	0
    Cs(r):	-320.083	-320.058	-0.025802	0

    writing force and moment coefficient files.

Time = 6

smoothSolver:  Solving for k, Initial residual = 0.0104381, Final residual = 0.000167376, No Iterations 4
bounding k, min: -0.00191977 max: 0.166926 average: 0.000167371
ExecutionTime = 8.64 s  ClockTime = 9 s

forceCoeffs forceCoeffs1 write:
    Coefficient	Total	Pressure	Viscous	Internal
    Cd:	640.167	640.115	0.0516041	0
    Cd(f):	344.046	344.02	0.0259792	0
    Cd(r):	296.121	296.095	0.0256249	0
    Cl:	-47.9248	-47.9245	-0.000354322	0
    Cl(f):	-7.348	-7.3478	-0.000204737	0
    Cl(r):	-40.5768	-40.5767	-0.000149585	0
    CmPitch:	16.6144	16.6144	-2.75759e-05	0
    CmRoll:	23.9624	23.9622	0.000177161	0
    CmYaw:	320.083	320.058	0.025802	0
    Cs:	-1.02306e-16	-1.04134e-16	1.82833e-18	0
    Cs(f):	320.083	320.058	0.025802	0
    Cs(r):	-320.083	-320.058	-0.025802	0

    writing force and moment coefficient files.

Time = 6

smoothSolver:  Solving for Ux, Initial residual = 0.0733276, Final residual = 0.0010093, No Iterations 4
smoothSolver:  Solving for Uy, Initial residual = 0.154265, Final residual = 0.0124636, No Iterations 2
smoothSolver:  Solving for Ux, Initial residual = 0.0733276, Final residual = 0.0010093, No Iterations 4
smoothSolver:  Solving for Uy, Initial residual = 0.154265, Final residual = 0.0124636, No Iterations 2
GAMG:  Solving for p, Initial residual = 0.192551, Final residual = 0.00827374, No Iterations 6
GAMG:  Solving for p, Initial residual = 0.192551, Final residual = 0.00827374, No Iterations 6
GAMG:  Solving for p, Initial residual = 0.0116442, Final residual = 0.000407021, No Iterations 16
GAMG:  Solving for p, Initial residual = 0.0116442, Final residual = 0.000407021, No Iterations 16
GAMG:  Solving for p, Initial residual = 0.00119997, Final residual = 5.79398e-05, No Iterations 12
GAMG:  Solving for p, Initial residual = 0.00119997, Final residual = 5.79398e-05, No Iterations 12
GAMG:  Solving for p, Initial residual = 0.000317086, Final residual = 1.14601e-05, No Iterations 13
time step continuity errors : sum local = 0.0156777, global = 0.000168038, cumulative = -0.00176876
GAMG:  Solving for p, Initial residual = 0.000317086, Final residual = 1.14601e-05, No Iterations 13
time step continuity errors : sum local = 0.0156777, global = 0.000168038, cumulative = -0.00176876
smoothSolver:  Solving for omega, Initial residual = 0.106813, Final residual = 0.00327626, No Iterations 2
bounding omega, min: -101140 max: 7.16477e+06 average: 3618.17
smoothSolver:  Solving for k, Initial residual = 0.00493655, Final residual = 0.000486758, No Iterations 2
bounding k, min: -0.00547534 max: 0.395682 average: 0.000622474
ExecutionTime = 9.62 s  ClockTime = 9 s

smoothSolver:  Solving for omega, Initial residual = 0.106813, Final residual = 0.00327626, No Iterations 2
bounding omega, min: -101140 max: 7.16477e+06 average: 3618.17
forceCoeffs forceCoeffs1 write:
    Coefficient	Total	Pressure	Viscous	Internal
    Cd:	470.076	470.001	0.0743159	0
    Cd(f):	211.623	211.586	0.037412	0
    Cd(r):	258.453	258.416	0.036904	0
    Cl:	46.8295	46.83	-0.000508014	0
    Cl(f):	-5.94886	-5.94865	-0.000200619	0
    Cl(r):	52.7783	52.7786	-0.000307395	0
    CmPitch:	-29.3636	-29.3637	5.33882e-05	0
    CmRoll:	-23.4147	-23.415	0.000254007	0
    CmYaw:	235.038	235.001	0.037158	0
    Cs:	-8.66119e-17	-8.82367e-17	1.6248e-18	0
    Cs(f):	235.038	235.001	0.037158	0
    Cs(r):	-235.038	-235.001	-0.037158	0

    writing force and moment coefficient files.

Time = 7

smoothSolver:  Solving for k, Initial residual = 0.00493655, Final residual = 0.000486758, No Iterations 2
bounding k, min: -0.00547534 max: 0.395682 average: 0.000622474
ExecutionTime = 9.67 s  ClockTime = 10 s

forceCoeffs forceCoeffs1 write:
    Coefficient	Total	Pressure	Viscous	Internal
    Cd:	470.076	470.001	0.0743159	0
    Cd(f):	211.623	211.586	0.037412	0
    Cd(r):	258.453	258.416	0.036904	0
    Cl:	46.8295	46.83	-0.000508014	0
    Cl(f):	-5.94886	-5.94865	-0.000200619	0
    Cl(r):	52.7783	52.7786	-0.000307395	0
    CmPitch:	-29.3636	-29.3637	5.33882e-05	0
    CmRoll:	-23.4147	-23.415	0.000254007	0
    CmYaw:	235.038	235.001	0.037158	0
    Cs:	-8.66119e-17	-8.82367e-17	1.6248e-18	0
    Cs(f):	235.038	235.001	0.037158	0
    Cs(r):	-235.038	-235.001	-0.037158	0

    writing force and moment coefficient files.

Time = 7

smoothSolver:  Solving for Ux, Initial residual = 0.0584865, Final residual = 0.00558698, No Iterations 2
smoothSolver:  Solving for Uy, Initial residual = 0.104721, Final residual = 0.00722993, No Iterations 2
smoothSolver:  Solving for Ux, Initial residual = 0.0584865, Final residual = 0.00558698, No Iterations 2
smoothSolver:  Solving for Uy, Initial residual = 0.104721, Final residual = 0.00722993, No Iterations 2
GAMG:  Solving for p, Initial residual = 0.214921, Final residual = 0.00797237, No Iterations 11
GAMG:  Solving for p, Initial residual = 0.214921, Final residual = 0.00797237, No Iterations 11
GAMG:  Solving for p, Initial residual = 0.0152163, Final residual = 0.000627257, No Iterations 16
GAMG:  Solving for p, Initial residual = 0.0152163, Final residual = 0.000627257, No Iterations 16
GAMG:  Solving for p, Initial residual = 0.00148781, Final residual = 7.08501e-05, No Iterations 14
GAMG:  Solving for p, Initial residual = 0.00148781, Final residual = 7.08501e-05, No Iterations 14
GAMG:  Solving for p, Initial residual = 0.000579902, Final residual = 2.7166e-05, No Iterations 11
time step continuity errors : sum local = 0.036446, global = 0.000251423, cumulative = -0.00151733
GAMG:  Solving for p, Initial residual = 0.000579902, Final residual = 2.7166e-05, No Iterations 11
time step continuity errors : sum local = 0.036446, global = 0.000251423, cumulative = -0.00151733
smoothSolver:  Solving for omega, Initial residual = 0.214963, Final residual = 0.0015349, No Iterations 2
bounding omega, min: -14724.4 max: 3.58686e+06 average: 3926.38
smoothSolver:  Solving for omega, Initial residual = 0.214963, Final residual = 0.0015349, No Iterations 2
bounding omega, min: -14724.4 max: 3.58686e+06 average: 3926.38
smoothSolver:  Solving for k, Initial residual = 0.00242142, Final residual = 3.01433e-05, No Iterations 4
bounding k, min: -0.0115236 max: 1.17506 average: 0.00187943
ExecutionTime = 10.7 s  ClockTime = 11 s

forceCoeffs forceCoeffs1 write:
    Coefficient	Total	Pressure	Viscous	Internal
    Cd:	101.049	100.965	0.0843139	0
    Cd(f):	0.327637	0.285223	0.0424146	0
    Cd(r):	100.722	100.68	0.0418993	0
    Cl:	100.394	100.395	-0.000515247	0
    Cl(f):	-2.08185	-2.08173	-0.000125429	0
    Cl(r):	102.476	102.476	-0.000389818	0
    CmPitch:	-52.2789	-52.2791	0.000132195	0
    CmRoll:	-50.1971	-50.1973	0.000257623	0
    CmYaw:	50.5247	50.4825	0.042157	0
    Cs:	-4.0549e-17	-4.1282e-17	7.33026e-19	0
    Cs(f):	50.5247	50.4825	0.042157	0
    Cs(r):	-50.5247	-50.4825	-0.042157	0

    writing force and moment coefficient files.

Time = 8

smoothSolver:  Solving for k, Initial residual = 0.00242142, Final residual = 3.01433e-05, No Iterations 4
bounding k, min: -0.0115236 max: 1.17506 average: 0.00187943
ExecutionTime = 10.73 s  ClockTime = 11 s

forceCoeffs forceCoeffs1 write:
    Coefficient	Total	Pressure	Viscous	Internal
    Cd:	101.049	100.965	0.0843139	0
    Cd(f):	0.327637	0.285223	0.0424146	0
    Cd(r):	100.722	100.68	0.0418993	0
    Cl:	100.394	100.395	-0.000515247	0
    Cl(f):	-2.08185	-2.08173	-0.000125429	0
    Cl(r):	102.476	102.476	-0.000389818	0
    CmPitch:	-52.2789	-52.2791	0.000132195	0
    CmRoll:	-50.1971	-50.1973	0.000257623	0
    CmYaw:	50.5247	50.4825	0.042157	0
    Cs:	-4.0549e-17	-4.1282e-17	7.33026e-19	0
    Cs(f):	50.5247	50.4825	0.042157	0
    Cs(r):	-50.5247	-50.4825	-0.042157	0

    writing force and moment coefficient files.

Time = 8

smoothSolver:  Solving for Ux, Initial residual = 0.0351518, Final residual = 0.00300975, No Iterations 2
smoothSolver:  Solving for Uy, Initial residual = 0.0780857, Final residual = 0.00535838, No Iterations 2
smoothSolver:  Solving for Ux, Initial residual = 0.0351518, Final residual = 0.00300975, No Iterations 2
smoothSolver:  Solving for Uy, Initial residual = 0.0780857, Final residual = 0.00535838, No Iterations 2
GAMG:  Solving for p, Initial residual = 0.286557, Final residual = 0.0106169, No Iterations 11
GAMG:  Solving for p, Initial residual = 0.286557, Final residual = 0.0106169, No Iterations 11
GAMG:  Solving for p, Initial residual = 0.00943461, Final residual = 0.000359526, No Iterations 16
GAMG:  Solving for p, Initial residual = 0.00943461, Final residual = 0.000359526, No Iterations 16
GAMG:  Solving for p, Initial residual = 0.00120115, Final residual = 4.60007e-05, No Iterations 14
GAMG:  Solving for p, Initial residual = 0.00120115, Final residual = 4.60007e-05, No Iterations 14
GAMG:  Solving for p, Initial residual = 0.000589424, Final residual = 2.48279e-05, No Iterations 11
time step continuity errors : sum local = 0.0459837, global = 0.000473329, cumulative = -0.00104401
GAMG:  Solving for p, Initial residual = 0.000589424, Final residual = 2.48279e-05, No Iterations 11
time step continuity errors : sum local = 0.0459837, global = 0.000473329, cumulative = -0.00104401
smoothSolver:  Solving for omega, Initial residual = 0.141958, Final residual = 0.00407977, No Iterations 2
bounding omega, min: -11804 max: 1.91563e+06 average: 4121.99
smoothSolver:  Solving for k, Initial residual = 0.00154517, Final residual = 0.000108704, No Iterations 2
bounding k, min: -0.0103163 max: 2.4715 average: 0.00387612
ExecutionTime = 11.74 s  ClockTime = 12 s

smoothSolver:  Solving for omega, Initial residual = 0.141958, Final residual = 0.00407977, No Iterations 2
bounding omega, min: -11804 max: 1.91563e+06 average: 4121.99
forceCoeffs forceCoeffs1 write:
    Coefficient	Total	Pressure	Viscous	Internal
    Cd:	-207.737	-207.817	0.0794079	0
    Cd(f):	-139.264	-139.304	0.039773	0
    Cd(r):	-68.4736	-68.5133	0.0396349	0
    Cl:	70.7901	70.7903	-0.00013814	0
    Cl(f):	1.5831	1.58304	6.24141e-05	0
    Cl(r):	69.207	69.2072	-0.000200554	0
    CmPitch:	-33.812	-33.8121	0.000131484	0
    CmRoll:	-35.3951	-35.3951	6.90698e-05	0
    CmYaw:	-103.869	-103.908	0.0397039	0
    Cs:	3.70205e-18	3.79034e-18	-8.82939e-20	0
    Cs(f):	-103.869	-103.908	0.0397039	0
    Cs(r):	103.869	103.908	-0.0397039	0

    writing force and moment coefficient files.

Time = 9

smoothSolver:  Solving for k, Initial residual = 0.00154517, Final residual = 0.000108704, No Iterations 2
bounding k, min: -0.0103163 max: 2.4715 average: 0.00387612
ExecutionTime = 11.78 s  ClockTime = 12 s

forceCoeffs forceCoeffs1 write:
    Coefficient	Total	Pressure	Viscous	Internal
    Cd:	-207.737	-207.817	0.0794079	0
    Cd(f):	-139.264	-139.304	0.039773	0
    Cd(r):	-68.4736	-68.5133	0.0396349	0
    Cl:	70.7901	70.7903	-0.00013814	0
    Cl(f):	1.5831	1.58304	6.24141e-05	0
    Cl(r):	69.207	69.2072	-0.000200554	0
    CmPitch:	-33.812	-33.8121	0.000131484	0
    CmRoll:	-35.3951	-35.3951	6.90698e-05	0
    CmYaw:	-103.869	-103.908	0.0397039	0
    Cs:	3.70205e-18	3.79034e-18	-8.82939e-20	0
    Cs(f):	-103.869	-103.908	0.0397039	0
    Cs(r):	103.869	103.908	-0.0397039	0

    writing force and moment coefficient files.

Time = 9

smoothSolver:  Solving for Ux, Initial residual = 0.0242866, Final residual = 0.0020756, No Iterations 2
smoothSolver:  Solving for Uy, Initial residual = 0.0728379, Final residual = 0.00587695, No Iterations 2
smoothSolver:  Solving for Ux, Initial residual = 0.0242866, Final residual = 0.0020756, No Iterations 2
smoothSolver:  Solving for Uy, Initial residual = 0.0728379, Final residual = 0.00587695, No Iterations 2
GAMG:  Solving for p, Initial residual = 0.709742, Final residual = 0.0203237, No Iterations 5
GAMG:  Solving for p, Initial residual = 0.709742, Final residual = 0.0203237, No Iterations 5
GAMG:  Solving for p, Initial residual = 0.016018, Final residual = 0.00078594, No Iterations 14
GAMG:  Solving for p, Initial residual = 0.016018, Final residual = 0.00078594, No Iterations 14
GAMG:  Solving for p, Initial residual = 0.00127972, Final residual = 4.52299e-05, No Iterations 18
GAMG:  Solving for p, Initial residual = 0.00127972, Final residual = 4.52299e-05, No Iterations 18
GAMG:  Solving for p, Initial residual = 0.000370387, Final residual = 1.61875e-05, No Iterations 13
time step continuity errors : sum local = 0.030599, global = 0.000273746, cumulative = -0.00077026
GAMG:  Solving for p, Initial residual = 0.000370387, Final residual = 1.61875e-05, No Iterations 13
time step continuity errors : sum local = 0.030599, global = 0.000273746, cumulative = -0.00077026
smoothSolver:  Solving for omega, Initial residual = 0.697698, Final residual = 0.0221292, No Iterations 2
bounding omega, min: -3.7427e+07 max: 2.63909e+08 average: 9487.46
smoothSolver:  Solving for k, Initial residual = 0.00147337, Final residual = 3.79238e-05, No Iterations 2
bounding k, min: -0.026605 max: 3.89462 average: 0.00577309
ExecutionTime = 12.77 s  ClockTime = 13 s

smoothSolver:  Solving for omega, Initial residual = 0.697698, Final residual = 0.0221292, No Iterations 2
bounding omega, min: -3.7427e+07 max: 2.63909e+08 average: 9487.46
forceCoeffs forceCoeffs1 write:
    Coefficient	Total	Pressure	Viscous	Internal
    Cd:	-297.122	-297.186	0.0642107	0
    Cd(f):	-176.693	-176.724	0.0313178	0
    Cd(r):	-120.429	-120.462	0.032893	0
    Cl:	56.2635	56.262	0.00157521	0
    Cl(f):	3.94437	3.94374	0.000628134	0
    Cl(r):	52.3192	52.3182	0.000947077	0
    CmPitch:	-24.1874	-24.1872	-0.000159471	0
    CmRoll:	-28.1318	-28.131	-0.000787605	0
    CmYaw:	-148.561	-148.593	0.0321054	0
    Cs:	2.92221e-17	3.00022e-17	-7.80158e-19	0
    Cs(f):	-148.561	-148.593	0.0321054	0
    Cs(r):	148.561	148.593	-0.0321054	0

    writing force and moment coefficient files.

Time = 10

smoothSolver:  Solving for k, Initial residual = 0.00147337, Final residual = 3.79238e-05, No Iterations 2
bounding k, min: -0.026605 max: 3.89462 average: 0.00577309
ExecutionTime = 12.79 s  ClockTime = 13 s

forceCoeffs forceCoeffs1 write:
    Coefficient	Total	Pressure	Viscous	Internal
    Cd:	-297.122	-297.186	0.0642107	0
    Cd(f):	-176.693	-176.724	0.0313178	0
    Cd(r):	-120.429	-120.462	0.032893	0
    Cl:	56.2635	56.262	0.00157521	0
    Cl(f):	3.94437	3.94374	0.000628134	0
    Cl(r):	52.3192	52.3182	0.000947077	0
    CmPitch:	-24.1874	-24.1872	-0.000159471	0
    CmRoll:	-28.1318	-28.131	-0.000787605	0
    CmYaw:	-148.561	-148.593	0.0321054	0
    Cs:	2.92221e-17	3.00022e-17	-7.80158e-19	0
    Cs(f):	-148.561	-148.593	0.0321054	0
    Cs(r):	148.561	148.593	-0.0321054	0

    writing force and moment coefficient files.

Time = 10

smoothSolver:  Solving for Ux, Initial residual = 0.0315285, Final residual = 0.00248025, No Iterations 2
smoothSolver:  Solving for Uy, Initial residual = 0.0821591, Final residual = 0.00648213, No Iterations 2
smoothSolver:  Solving for Ux, Initial residual = 0.0315285, Final residual = 0.00248025, No Iterations 2
smoothSolver:  Solving for Uy, Initial residual = 0.0821591, Final residual = 0.00648213, No Iterations 2
GAMG:  Solving for p, Initial residual = 0.467549, Final residual = 0.0221129, No Iterations 17
GAMG:  Solving for p, Initial residual = 0.467549, Final residual = 0.0221129, No Iterations 17
GAMG:  Solving for p, Initial residual = 0.0233745, Final residual = 0.00082599, No Iterations 28
GAMG:  Solving for p, Initial residual = 0.0233745, Final residual = 0.00082599, No Iterations 28
GAMG:  Solving for p, Initial residual = 0.00428088, Final residual = 0.000164728, No Iterations 12
GAMG:  Solving for p, Initial residual = 0.00428088, Final residual = 0.000164728, No Iterations 12
GAMG:  Solving for p, Initial residual = 0.00147869, Final residual = 7.12737e-05, No Iterations 11
time step continuity errors : sum local = 0.0838823, global = -0.000664666, cumulative = -0.00143493
GAMG:  Solving for p, Initial residual = 0.00147869, Final residual = 7.12737e-05, No Iterations 11
time step continuity errors : sum local = 0.0838823, global = -0.000664666, cumulative = -0.00143493
smoothSolver:  Solving for omega, Initial residual = 0.327434, Final residual = 4.81944e-05, No Iterations 2
bounding omega, min: -10761.5 max: 1.32396e+08 average: 7473
smoothSolver:  Solving for omega, Initial residual = 0.327434, Final residual = 4.81944e-05, No Iterations 2
bounding omega, min: -10761.5 max: 1.32396e+08 average: 7473
smoothSolver:  Solving for k, Initial residual = 0.000932135, Final residual = 5.03214e-05, No Iterations 2
bounding k, min: -0.00777676 max: 4.90331 average: 0.00673801
ExecutionTime = 14.02 s  ClockTime = 14 s

forceCoeffs forceCoeffs1 write:
    Coefficient	Total	Pressure	Viscous	Internal
    Cd:	106.101	106.031	0.0700266	0
    Cd(f):	78.681	78.647	0.0339685	0
    Cd(r):	27.42	27.3839	0.0360581	0
    Cl:	-51.261	-51.2631	0.00208965	0
    Cl(f):	6.52842	6.52762	0.000805207	0
    Cl(r):	-57.7895	-57.7907	0.00128445	0
    CmPitch:	32.1589	32.1592	-0.00023962	0
    CmRoll:	25.6305	25.6316	-0.00104483	0
    CmYaw:	53.0505	53.0155	0.0350133	0
    Cs:	2.52257e-17	2.61068e-17	-8.81111e-19	0
    Cs(f):	53.0505	53.0155	0.0350133	0
    Cs(r):	-53.0505	-53.0155	-0.0350133	0

    writing force and moment coefficient files.

Time = 11

smoothSolver:  Solving for k, Initial residual = 0.000932135, Final residual = 5.03214e-05, No Iterations 2
bounding k, min: -0.00777676 max: 4.90331 average: 0.00673801
ExecutionTime = 14.03 s  ClockTime = 14 s

forceCoeffs forceCoeffs1 write:
    Coefficient	Total	Pressure	Viscous	Internal
    Cd:	106.101	106.031	0.0700266	0
    Cd(f):	78.681	78.647	0.0339685	0
    Cd(r):	27.42	27.3839	0.0360581	0
    Cl:	-51.261	-51.2631	0.00208965	0
    Cl(f):	6.52842	6.52762	0.000805207	0
    Cl(r):	-57.7895	-57.7907	0.00128445	0
    CmPitch:	32.1589	32.1592	-0.00023962	0
    CmRoll:	25.6305	25.6316	-0.00104483	0
    CmYaw:	53.0505	53.0155	0.0350133	0
    Cs:	2.52257e-17	2.61068e-17	-8.81111e-19	0
    Cs(f):	53.0505	53.0155	0.0350133	0
    Cs(r):	-53.0505	-53.0155	-0.0350133	0

    writing force and moment coefficient files.

Time = 11

smoothSolver:  Solving for Ux, Initial residual = 0.0671899, Final residual = 0.00254467, No Iterations 2
smoothSolver:  Solving for Uy, Initial residual = 0.102713, Final residual = 0.0077292, No Iterations 2
smoothSolver:  Solving for Ux, Initial residual = 0.0671899, Final residual = 0.00254467, No Iterations 2
smoothSolver:  Solving for Uy, Initial residual = 0.102713, Final residual = 0.0077292, No Iterations 2
GAMG:  Solving for p, Initial residual = 0.419757, Final residual = 0.0191228, No Iterations 26
GAMG:  Solving for p, Initial residual = 0.419757, Final residual = 0.0191228, No Iterations 26
GAMG:  Solving for p, Initial residual = 0.0285532, Final residual = 0.00124924, No Iterations 32
GAMG:  Solving for p, Initial residual = 0.0285532, Final residual = 0.00124924, No Iterations 32
GAMG:  Solving for p, Initial residual = 0.00336246, Final residual = 0.000123437, No Iterations 22
GAMG:  Solving for p, Initial residual = 0.00336246, Final residual = 0.000123437, No Iterations 22
GAMG:  Solving for p, Initial residual = 0.00143828, Final residual = 6.13115e-05, No Iterations 15
time step continuity errors : sum local = 0.0722829, global = -0.00165134, cumulative = -0.00308626
GAMG:  Solving for p, Initial residual = 0.00143828, Final residual = 6.13115e-05, No Iterations 15
time step continuity errors : sum local = 0.0722829, global = -0.00165134, cumulative = -0.00308626
smoothSolver:  Solving for omega, Initial residual = 0.316858, Final residual = 0.000129259, No Iterations 2
bounding omega, min: -8224.09 max: 6.6611e+07 average: 6091.38
smoothSolver:  Solving for omega, Initial residual = 0.316858, Final residual = 0.000129259, No Iterations 2
bounding omega, min: -8224.09 max: 6.6611e+07 average: 6091.38
smoothSolver:  Solving for k, Initial residual = 0.00826976, Final residual = 0.000305567, No Iterations 4
bounding k, min: -0.109359 max: 7.972 average: 0.00829326
ExecutionTime = 15.6 s  ClockTime = 15 s

forceCoeffs forceCoeffs1 write:
    Coefficient	Total	Pressure	Viscous	Internal
    Cd:	1011.53	1011.43	0.0968286	0
    Cd(f):	407.604	407.556	0.0476978	0
    Cd(r):	603.926	603.877	0.0491308	0
    Cl:	196.322	196.32	0.00143294	0
    Cl(f):	24.1099	24.1091	0.000806485	0
    Cl(r):	172.212	172.211	0.000626452	0
    CmPitch:	-74.0509	-74.051	9.00166e-05	0
    CmRoll:	-98.1609	-98.1601	-0.000716469	0
    CmYaw:	505.765	505.716	0.0484143	0
    Cs:	-3.65263e-18	-3.70253e-18	4.9907e-20	0
    Cs(f):	505.765	505.716	0.0484143	0
    Cs(r):	-505.765	-505.716	-0.0484143	0

    writing force and moment coefficient files.

Time = 12

smoothSolver:  Solving for k, Initial residual = 0.00826976, Final residual = 0.000305567, No Iterations 4
bounding k, min: -0.109359 max: 7.972 average: 0.00829326
ExecutionTime = 15.62 s  ClockTime = 16 s

forceCoeffs forceCoeffs1 write:
    Coefficient	Total	Pressure	Viscous	Internal
    Cd:	1011.53	1011.43	0.0968286	0
    Cd(f):	407.604	407.556	0.0476978	0
    Cd(r):	603.926	603.877	0.0491308	0
    Cl:	196.322	196.32	0.00143294	0
    Cl(f):	24.1099	24.1091	0.000806485	0
    Cl(r):	172.212	172.211	0.000626452	0
    CmPitch:	-74.0509	-74.051	9.00166e-05	0
    CmRoll:	-98.1609	-98.1601	-0.000716469	0
    CmYaw:	505.765	505.716	0.0484143	0
    Cs:	-3.65263e-18	-3.70253e-18	4.9907e-20	0
    Cs(f):	505.765	505.716	0.0484143	0
    Cs(r):	-505.765	-505.716	-0.0484143	0

    writing force and moment coefficient files.

Time = 12

smoothSolver:  Solving for Ux, Initial residual = 0.0798247, Final residual = 0.00423488, No Iterations 2
smoothSolver:  Solving for Uy, Initial residual = 0.126249, Final residual = 0.0105709, No Iterations 2
smoothSolver:  Solving for Ux, Initial residual = 0.0798247, Final residual = 0.00423488, No Iterations 2
smoothSolver:  Solving for Uy, Initial residual = 0.126249, Final residual = 0.0105709, No Iterations 2
GAMG:  Solving for p, Initial residual = 0.533358, Final residual = 0.0265875, No Iterations 8
GAMG:  Solving for p, Initial residual = 0.533358, Final residual = 0.0265875, No Iterations 8
GAMG:  Solving for p, Initial residual = 0.0223988, Final residual = 0.00102005, No Iterations 30
GAMG:  Solving for p, Initial residual = 0.0223988, Final residual = 0.00102005, No Iterations 30
GAMG:  Solving for p, Initial residual = 0.00178031, Final residual = 7.29158e-05, No Iterations 22
GAMG:  Solving for p, Initial residual = 0.00178031, Final residual = 7.29158e-05, No Iterations 22
GAMG:  Solving for p, Initial residual = 0.000435731, Final residual = 1.87998e-05, No Iterations 18
time step continuity errors : sum local = 0.0319971, global = -0.00101926, cumulative = -0.00410552
GAMG:  Solving for p, Initial residual = 0.000435731, Final residual = 1.87998e-05, No Iterations 18
time step continuity errors : sum local = 0.0319971, global = -0.00101926, cumulative = -0.00410552
smoothSolver:  Solving for omega, Initial residual = 0.294505, Final residual = 0.000386389, No Iterations 2
bounding omega, min: -53279.1 max: 3.36126e+07 average: 5646.43
smoothSolver:  Solving for k, Initial residual = 0.00816241, Final residual = 0.000591067, No Iterations 2
bounding k, min: -0.00260259 max: 8.63583 average: 0.010589
ExecutionTime = 16.95 s  ClockTime = 17 s

smoothSolver:  Solving for omega, Initial residual = 0.294505, Final residual = 0.000386389, No Iterations 2
bounding omega, min: -53279.1 max: 3.36126e+07 average: 5646.43
forceCoeffs forceCoeffs1 write:
    Coefficient	Total	Pressure	Viscous	Internal
    Cd:	1374.24	1374.09	0.155343	0
    Cd(f):	277.293	277.216	0.0770045	0
    Cd(r):	1096.95	1096.87	0.0783387	0
    Cl:	819.655	819.654	0.00133417	0
    Cl(f):	50.3276	50.327	0.000668736	0
    Cl(r):	769.328	769.327	0.00066543	0
    CmPitch:	-359.5	-359.5	1.65274e-06	0
    CmRoll:	-409.828	-409.827	-0.000667083	0
    CmYaw:	687.12	687.043	0.0776716	0
    Cs:	-2.90988e-17	-2.9561e-17	4.62181e-19	0
    Cs(f):	687.12	687.043	0.0776716	0
    Cs(r):	-687.12	-687.043	-0.0776716	0

    writing force and moment coefficient files.

Time = 13

smoothSolver:  Solving for k, Initial residual = 0.00816241, Final residual = 0.000591067, No Iterations 2
bounding k, min: -0.00260259 max: 8.63583 average: 0.010589
ExecutionTime = 16.99 s  ClockTime = 17 s

forceCoeffs forceCoeffs1 write:
    Coefficient	Total	Pressure	Viscous	Internal
    Cd:	1374.24	1374.09	0.155343	0
    Cd(f):	277.293	277.216	0.0770045	0
    Cd(r):	1096.95	1096.87	0.0783387	0
    Cl:	819.655	819.654	0.00133417	0
    Cl(f):	50.3276	50.327	0.000668736	0
    Cl(r):	769.328	769.327	0.00066543	0
    CmPitch:	-359.5	-359.5	1.65274e-06	0
    CmRoll:	-409.828	-409.827	-0.000667083	0
    CmYaw:	687.12	687.043	0.0776716	0
    Cs:	-2.90988e-17	-2.9561e-17	4.62181e-19	0
    Cs(f):	687.12	687.043	0.0776716	0
    Cs(r):	-687.12	-687.043	-0.0776716	0

    writing force and moment coefficient files.

Time = 13

smoothSolver:  Solving for Ux, Initial residual = 0.0930673, Final residual = 0.00438859, No Iterations 2
smoothSolver:  Solving for Uy, Initial residual = 0.119488, Final residual = 0.00979013, No Iterations 2
smoothSolver:  Solving for Ux, Initial residual = 0.0930673, Final residual = 0.00438859, No Iterations 2
smoothSolver:  Solving for Uy, Initial residual = 0.119488, Final residual = 0.00979013, No Iterations 2
GAMG:  Solving for p, Initial residual = 0.457642, Final residual = 0.0201367, No Iterations 8
GAMG:  Solving for p, Initial residual = 0.457642, Final residual = 0.0201367, No Iterations 8
GAMG:  Solving for p, Initial residual = 0.0175173, Final residual = 0.000656987, No Iterations 36
GAMG:  Solving for p, Initial residual = 0.0175173, Final residual = 0.000656987, No Iterations 36
GAMG:  Solving for p, Initial residual = 0.00149319, Final residual = 7.21382e-05, No Iterations 16
GAMG:  Solving for p, Initial residual = 0.00149319, Final residual = 7.21382e-05, No Iterations 16
GAMG:  Solving for p, Initial residual = 0.000298894, Final residual = 1.3926e-05, No Iterations 14
time step continuity errors : sum local = 0.0221315, global = -0.000454074, cumulative = -0.0045596
GAMG:  Solving for p, Initial residual = 0.000298894, Final residual = 1.3926e-05, No Iterations 14
time step continuity errors : sum local = 0.0221315, global = -0.000454074, cumulative = -0.0045596
smoothSolver:  Solving for omega, Initial residual = 0.253667, Final residual = 0.000817045, No Iterations 2
bounding omega, min: -315910 max: 1.70296e+07 average: 5657.64
smoothSolver:  Solving for k, Initial residual = 0.00888373, Final residual = 6.90541e-05, No Iterations 4
bounding k, min: -0.00429621 max: 11.4196 average: 0.0153815
smoothSolver:  Solving for omega, Initial residual = 0.253667, Final residual = 0.000817045, No Iterations 2
bounding omega, min: -315910 max: 1.70296e+07 average: 5657.64
ExecutionTime = 18.28 s  ClockTime = 18 s

forceCoeffs forceCoeffs1 write:
    Coefficient	Total	Pressure	Viscous	Internal
    Cd:	1040.72	1040.5	0.226052	0
    Cd(f):	81.0413	80.9294	0.111957	0
    Cd(r):	959.682	959.568	0.114095	0
    Cl:	878.64	878.638	0.00213775	0
    Cl(f):	63.6602	63.659	0.001217	0
    Cl(r):	814.98	814.979	0.00092075	0
    CmPitch:	-375.66	-375.66	0.000148126	0
    CmRoll:	-439.32	-439.319	-0.00106888	0
    CmYaw:	520.362	520.249	0.113026	0
    Cs:	-3.72559e-17	-3.78825e-17	6.26574e-19	0
    Cs(f):	520.362	520.249	0.113026	0
    Cs(r):	-520.362	-520.249	-0.113026	0

    writing force and moment coefficient files.

Time = 14

smoothSolver:  Solving for k, Initial residual = 0.00888373, Final residual = 6.90541e-05, No Iterations 4
bounding k, min: -0.00429621 max: 11.4196 average: 0.0153815
ExecutionTime = 18.3 s  ClockTime = 18 s

forceCoeffs forceCoeffs1 write:
    Coefficient	Total	Pressure	Viscous	Internal
    Cd:	1040.72	1040.5	0.226052	0
    Cd(f):	81.0413	80.9294	0.111957	0
    Cd(r):	959.682	959.568	0.114095	0
    Cl:	878.64	878.638	0.00213775	0
    Cl(f):	63.6602	63.659	0.001217	0
    Cl(r):	814.98	814.979	0.00092075	0
    CmPitch:	-375.66	-375.66	0.000148126	0
    CmRoll:	-439.32	-439.319	-0.00106888	0
    CmYaw:	520.362	520.249	0.113026	0
    Cs:	-3.72559e-17	-3.78825e-17	6.26574e-19	0
    Cs(f):	520.362	520.249	0.113026	0
    Cs(r):	-520.362	-520.249	-0.113026	0

    writing force and moment coefficient files.

Time = 14

smoothSolver:  Solving for Ux, Initial residual = 0.0645799, Final residual = 0.00333139, No Iterations 2
smoothSolver:  Solving for Uy, Initial residual = 0.0849211, Final residual = 0.00635622, No Iterations 2
smoothSolver:  Solving for Ux, Initial residual = 0.0645799, Final residual = 0.00333139, No Iterations 2
smoothSolver:  Solving for Uy, Initial residual = 0.0849211, Final residual = 0.00635622, No Iterations 2
GAMG:  Solving for p, Initial residual = 0.380626, Final residual = 0.0181712, No Iterations 8
GAMG:  Solving for p, Initial residual = 0.380626, Final residual = 0.0181712, No Iterations 8
GAMG:  Solving for p, Initial residual = 0.0187495, Final residual = 0.000787312, No Iterations 34
GAMG:  Solving for p, Initial residual = 0.0187495, Final residual = 0.000787312, No Iterations 34
GAMG:  Solving for p, Initial residual = 0.00308714, Final residual = 0.00014055, No Iterations 15
GAMG:  Solving for p, Initial residual = 0.00308714, Final residual = 0.00014055, No Iterations 15
GAMG:  Solving for p, Initial residual = 0.000959325, Final residual = 3.64924e-05, No Iterations 13
time step continuity errors : sum local = 0.0426914, global = 0.00113207, cumulative = -0.00342753
GAMG:  Solving for p, Initial residual = 0.000959325, Final residual = 3.64924e-05, No Iterations 13
time step continuity errors : sum local = 0.0426914, global = 0.00113207, cumulative = -0.00342753
smoothSolver:  Solving for omega, Initial residual = 0.195591, Final residual = 0.00217386, No Iterations 2
bounding omega, min: -57984.7 max: 1.02643e+07 average: 5431.62
smoothSolver:  Solving for omega, Initial residual = 0.195591, Final residual = 0.00217386, No Iterations 2
bounding omega, min: -57984.7 max: 1.02643e+07 average: 5431.62
smoothSolver:  Solving for k, Initial residual = 0.00810333, Final residual = 0.000671536, No Iterations 2
bounding k, min: -0.000476499 max: 12.1693 average: 0.022635
ExecutionTime = 19.58 s  ClockTime = 19 s

smoothSolver:  Solving for k, Initial residual = 0.00810333, Final residual = 0.000671536, No Iterations 2
bounding k, min: -0.000476499 max: 12.1693 average: 0.022635
ExecutionTime = 19.56 s  ClockTime = 19 s

forceCoeffs forceCoeffs1 write:
    Coefficient	Total	Pressure	Viscous	Internal
    Cd:	376.917	376.626	0.291268	0
    Cd(f):	-84.6633	-84.8073	0.143972	0
    Cd(r):	461.581	461.433	0.147296	0
    Cl:	546.244	546.241	0.00332386	0
    Cl(f):	53.6976	53.6957	0.00191358	0
    Cl(r):	492.546	492.545	0.00141028	0
    CmPitch:	-219.424	-219.425	0.000251647	0
    CmRoll:	-273.122	-273.12	-0.00166193	0
    CmYaw:	188.459	188.313	0.145634	0
    Cs:	-3.08514e-17	-3.14292e-17	5.77783e-19	0
    Cs(f):	188.459	188.313	0.145634	0
    Cs(r):	-188.459	-188.313	-0.145634	0

    writing force and moment coefficient files.

Time = 15

forceCoeffs forceCoeffs1 write:
    Coefficient	Total	Pressure	Viscous	Internal
    Cd:	376.917	376.626	0.291268	0
    Cd(f):	-84.6633	-84.8073	0.143972	0
    Cd(r):	461.581	461.433	0.147296	0
    Cl:	546.244	546.241	0.00332386	0
    Cl(f):	53.6976	53.6957	0.00191358	0
    Cl(r):	492.546	492.545	0.00141028	0
    CmPitch:	-219.424	-219.425	0.000251647	0
    CmRoll:	-273.122	-273.12	-0.00166193	0
    CmYaw:	188.459	188.313	0.145634	0
    Cs:	-3.08514e-17	-3.14292e-17	5.77783e-19	0
    Cs(f):	188.459	188.313	0.145634	0
    Cs(r):	-188.459	-188.313	-0.145634	0

    writing force and moment coefficient files.

Time = 15

smoothSolver:  Solving for Ux, Initial residual = 0.0337705, Final residual = 0.00254566, No Iterations 2
smoothSolver:  Solving for Ux, Initial residual = 0.0337705, Final residual = 0.00254566, No Iterations 2
smoothSolver:  Solving for Uy, Initial residual = 0.055126, Final residual = 0.00376944, No Iterations 2
smoothSolver:  Solving for Uy, Initial residual = 0.055126, Final residual = 0.00376944, No Iterations 2
GAMG:  Solving for p, Initial residual = 0.350042, Final residual = 0.0150728, No Iterations 7
GAMG:  Solving for p, Initial residual = 0.350042, Final residual = 0.0150728, No Iterations 7
GAMG:  Solving for p, Initial residual = 0.0184571, Final residual = 0.000723332, No Iterations 30
GAMG:  Solving for p, Initial residual = 0.0184571, Final residual = 0.000723332, No Iterations 30
GAMG:  Solving for p, Initial residual = 0.00378231, Final residual = 0.000131442, No Iterations 13
GAMG:  Solving for p, Initial residual = 0.00378231, Final residual = 0.000131442, No Iterations 13
GAMG:  Solving for p, Initial residual = 0.00102981, Final residual = 3.96163e-05, No Iterations 11
time step continuity errors : sum local = 0.0311572, global = 0.00110992, cumulative = -0.00231761
GAMG:  Solving for p, Initial residual = 0.00102981, Final residual = 3.96163e-05, No Iterations 11
time step continuity errors : sum local = 0.0311572, global = 0.00110992, cumulative = -0.00231761
smoothSolver:  Solving for omega, Initial residual = 0.153243, Final residual = 0.00283523, No Iterations 2
bounding omega, min: -12789.1 max: 5.82101e+06 average: 5318.23
smoothSolver:  Solving for omega, Initial residual = 0.153243, Final residual = 0.00283523, No Iterations 2
bounding omega, min: -12789.1 max: 5.82101e+06 average: 5318.23
smoothSolver:  Solving for k, Initial residual = 0.00520176, Final residual = 0.000373685, No Iterations 2
bounding k, min: -0.00344688 max: 15.722 average: 0.0316692
ExecutionTime = 20.75 s  ClockTime = 21 s

smoothSolver:  Solving for k, Initial residual = 0.00520176, Final residual = 0.000373685, No Iterations 2
bounding k, min: -0.00344688 max: 15.722 average: 0.0316692
ExecutionTime = 20.73 s  ClockTime = 21 s

forceCoeffs forceCoeffs1 write:
    Coefficient	Total	Pressure	Viscous	Internal
    Cd:	-56.3604	-56.6951	0.334641	0
    Cd(f):	-188.147	-188.312	0.165441	0
    Cd(r):	131.787	131.617	0.169199	0
    Cl:	319.934	319.93	0.003758	0
    Cl(f):	42.7649	42.7625	0.00235883	0
    Cl(r):	277.169	277.167	0.00139918	0
    CmPitch:	-117.202	-117.202	0.000479827	0
    CmRoll:	-159.967	-159.965	-0.001879	0
    CmYaw:	-28.1802	-28.3475	0.16732	0
    Cs:	-2.07535e-17	-2.11885e-17	4.35058e-19	0
    Cs(f):	-28.1802	-28.3475	0.16732	0
    Cs(r):	28.1802	28.3475	-0.16732	0

    writing force and moment coefficient files.

Time = 16

forceCoeffs forceCoeffs1 write:
    Coefficient	Total	Pressure	Viscous	Internal
    Cd:	-56.3604	-56.6951	0.334641	0
    Cd(f):	-188.147	-188.312	0.165441	0
    Cd(r):	131.787	131.617	0.169199	0
    Cl:	319.934	319.93	0.003758	0
    Cl(f):	42.7649	42.7625	0.00235883	0
    Cl(r):	277.169	277.167	0.00139918	0
    CmPitch:	-117.202	-117.202	0.000479827	0
    CmRoll:	-159.967	-159.965	-0.001879	0
    CmYaw:	-28.1802	-28.3475	0.16732	0
    Cs:	-2.07535e-17	-2.11885e-17	4.35058e-19	0
    Cs(f):	-28.1802	-28.3475	0.16732	0
    Cs(r):	28.1802	28.3475	-0.16732	0

    writing force and moment coefficient files.

Time = 16

smoothSolver:  Solving for Ux, Initial residual = 0.0311131, Final residual = 0.00209649, No Iterations 2
smoothSolver:  Solving for Uy, Initial residual = 0.0394753, Final residual = 0.00245569, No Iterations 2
smoothSolver:  Solving for Ux, Initial residual = 0.0311131, Final residual = 0.00209649, No Iterations 2
smoothSolver:  Solving for Uy, Initial residual = 0.0394753, Final residual = 0.00245569, No Iterations 2
GAMG:  Solving for p, Initial residual = 0.348271, Final residual = 0.0148887, No Iterations 7
GAMG:  Solving for p, Initial residual = 0.348271, Final residual = 0.0148887, No Iterations 7
GAMG:  Solving for p, Initial residual = 0.0190831, Final residual = 0.000946005, No Iterations 26
GAMG:  Solving for p, Initial residual = 0.0190831, Final residual = 0.000946005, No Iterations 26
GAMG:  Solving for p, Initial residual = 0.00338845, Final residual = 0.000152346, No Iterations 14
GAMG:  Solving for p, Initial residual = 0.00338845, Final residual = 0.000152346, No Iterations 14
GAMG:  Solving for p, Initial residual = 0.000734388, Final residual = 3.22563e-05, No Iterations 15
time step continuity errors : sum local = 0.0209811, global = 0.000796883, cumulative = -0.00152072
GAMG:  Solving for p, Initial residual = 0.000734388, Final residual = 3.22563e-05, No Iterations 15
time step continuity errors : sum local = 0.0209811, global = 0.000796883, cumulative = -0.00152072
smoothSolver:  Solving for omega, Initial residual = 0.100902, Final residual = 0.00335603, No Iterations 2
smoothSolver:  Solving for omega, Initial residual = 0.100902, Final residual = 0.00335603, No Iterations 2
smoothSolver:  Solving for k, Initial residual = 0.00386306, Final residual = 0.000328351, No Iterations 2
bounding k, min: -0.0499819 max: 21.2444 average: 0.0418843
ExecutionTime = 21.93 s  ClockTime = 22 s

smoothSolver:  Solving for k, Initial residual = 0.00386306, Final residual = 0.000328351, No Iterations 2
bounding k, min: -0.0499819 max: 21.2444 average: 0.0418843
ExecutionTime = 21.9 s  ClockTime = 22 s

forceCoeffs forceCoeffs1 write:
    Coefficient	Total	Pressure	Viscous	Internal
    Cd:	-296.553	-296.912	0.359415	0
    Cd(f):	-96.4471	-96.6255	0.178429	0
    Cd(r):	-200.106	-200.287	0.180986	0
    Cl:	-103.659	-103.661	0.00255752	0
    Cl(f):	22.3086	22.3065	0.00213237	0
    Cl(r):	-125.967	-125.968	0.000425142	0
    CmPitch:	74.138	74.1372	0.000853616	0
    CmRoll:	51.8294	51.8307	-0.00127876	0
    CmYaw:	-148.276	-148.456	0.179707	0
    Cs:	-9.61532e-18	-9.82769e-18	2.12366e-19	0
    Cs(f):	-148.276	-148.456	0.179707	0
    Cs(r):	148.276	148.456	-0.179707	0

    writing force and moment coefficient files.

Time = 17

forceCoeffs forceCoeffs1 write:
    Coefficient	Total	Pressure	Viscous	Internal
    Cd:	-296.553	-296.912	0.359415	0
    Cd(f):	-96.4471	-96.6255	0.178429	0
    Cd(r):	-200.106	-200.287	0.180986	0
    Cl:	-103.659	-103.661	0.00255752	0
    Cl(f):	22.3086	22.3065	0.00213237	0
    Cl(r):	-125.967	-125.968	0.000425142	0
    CmPitch:	74.138	74.1372	0.000853616	0
    CmRoll:	51.8294	51.8307	-0.00127876	0
    CmYaw:	-148.276	-148.456	0.179707	0
    Cs:	-9.61532e-18	-9.82769e-18	2.12366e-19	0
    Cs(f):	-148.276	-148.456	0.179707	0
    Cs(r):	148.276	148.456	-0.179707	0

    writing force and moment coefficient files.

Time = 17

smoothSolver:  Solving for Ux, Initial residual = 0.0374968, Final residual = 0.00193509, No Iterations 2
smoothSolver:  Solving for Uy, Initial residual = 0.0355442, Final residual = 0.00219469, No Iterations 2
smoothSolver:  Solving for Ux, Initial residual = 0.0374968, Final residual = 0.00193509, No Iterations 2
smoothSolver:  Solving for Uy, Initial residual = 0.0355442, Final residual = 0.00219469, No Iterations 2
GAMG:  Solving for p, Initial residual = 0.409524, Final residual = 0.018654, No Iterations 5
GAMG:  Solving for p, Initial residual = 0.409524, Final residual = 0.018654, No Iterations 5
GAMG:  Solving for p, Initial residual = 0.025033, Final residual = 0.00105044, No Iterations 24
GAMG:  Solving for p, Initial residual = 0.025033, Final residual = 0.00105044, No Iterations 24
GAMG:  Solving for p, Initial residual = 0.00216125, Final residual = 9.88487e-05, No Iterations 14
GAMG:  Solving for p, Initial residual = 0.00216125, Final residual = 9.88487e-05, No Iterations 14
GAMG:  Solving for p, Initial residual = 0.000343263, Final residual = 1.13328e-05, No Iterations 18
time step continuity errors : sum local = 0.00762577, global = 0.000342519, cumulative = -0.0011782
GAMG:  Solving for p, Initial residual = 0.000343263, Final residual = 1.13328e-05, No Iterations 18
time step continuity errors : sum local = 0.00762577, global = 0.000342519, cumulative = -0.0011782
smoothSolver:  Solving for omega, Initial residual = 0.0757737, Final residual = 0.00241423, No Iterations 2
bounding omega, min: -128406 max: 2.30237e+06 average: 5174.43
smoothSolver:  Solving for omega, Initial residual = 0.0757737, Final residual = 0.00241423, No Iterations 2
bounding omega, min: -128406 max: 2.30237e+06 average: 5174.43
smoothSolver:  Solving for k, Initial residual = 0.00275641, Final residual = 0.000184001, No Iterations 2
bounding k, min: -0.0363759 max: 25.555 average: 0.0522492
ExecutionTime = 23.09 s  ClockTime = 23 s

forceCoeffs forceCoeffs1 write:
    Coefficient	Total	Pressure	Viscous	Internal
    Cd:	-331.718	-332.091	0.373065	0
    Cd(f):	43.1218	42.9348	0.187007	0
    Cd(r):	-374.84	-375.026	0.186057	0
    Cl:	-417.962	-417.961	-0.000950019	0
    Cl(f):	0.933056	0.932362	0.000694082	0
    Cl(r):	-418.895	-418.893	-0.0016441	0
    CmPitch:	209.914	209.913	0.00116909	0
    CmRoll:	208.981	208.98	0.000475009	0
    CmYaw:	-165.859	-166.046	0.186532	0
    Cs:	-1.27614e-18	-1.32004e-18	4.38926e-20	0
    Cs(f):	-165.859	-166.046	0.186532	0
    Cs(r):	165.859	166.046	-0.186532	0

    writing force and moment coefficient files.

Time = 18

smoothSolver:  Solving for k, Initial residual = 0.00275641, Final residual = 0.000184001, No Iterations 2
bounding k, min: -0.0363759 max: 25.555 average: 0.0522492
ExecutionTime = 23.09 s  ClockTime = 23 s

forceCoeffs forceCoeffs1 write:
    Coefficient	Total	Pressure	Viscous	Internal
    Cd:	-331.718	-332.091	0.373065	0
    Cd(f):	43.1218	42.9348	0.187007	0
    Cd(r):	-374.84	-375.026	0.186057	0
    Cl:	-417.962	-417.961	-0.000950019	0
    Cl(f):	0.933056	0.932362	0.000694082	0
    Cl(r):	-418.895	-418.893	-0.0016441	0
    CmPitch:	209.914	209.913	0.00116909	0
    CmRoll:	208.981	208.98	0.000475009	0
    CmYaw:	-165.859	-166.046	0.186532	0
    Cs:	-1.27614e-18	-1.32004e-18	4.38926e-20	0
    Cs(f):	-165.859	-166.046	0.186532	0
    Cs(r):	165.859	166.046	-0.186532	0

    writing force and moment coefficient files.

Time = 18

smoothSolver:  Solving for Ux, Initial residual = 0.0345999, Final residual = 0.00135944, No Iterations 2
smoothSolver:  Solving for Uy, Initial residual = 0.0356188, Final residual = 0.00203794, No Iterations 2
smoothSolver:  Solving for Ux, Initial residual = 0.0345999, Final residual = 0.00135944, No Iterations 2
smoothSolver:  Solving for Uy, Initial residual = 0.0356188, Final residual = 0.00203794, No Iterations 2
GAMG:  Solving for p, Initial residual = 0.491167, Final residual = 0.0203403, No Iterations 8
GAMG:  Solving for p, Initial residual = 0.491167, Final residual = 0.0203403, No Iterations 8
GAMG:  Solving for p, Initial residual = 0.0263953, Final residual = 0.00118037, No Iterations 34
GAMG:  Solving for p, Initial residual = 0.0263953, Final residual = 0.00118037, No Iterations 34
GAMG:  Solving for p, Initial residual = 0.00237339, Final residual = 0.000115826, No Iterations 18
GAMG:  Solving for p, Initial residual = 0.00237339, Final residual = 0.000115826, No Iterations 18
GAMG:  Solving for p, Initial residual = 0.00041448, Final residual = 1.60495e-05, No Iterations 18
time step continuity errors : sum local = 0.00924666, global = 0.000614746, cumulative = -0.000563458
GAMG:  Solving for p, Initial residual = 0.00041448, Final residual = 1.60495e-05, No Iterations 18
time step continuity errors : sum local = 0.00924666, global = 0.000614746, cumulative = -0.000563458
smoothSolver:  Solving for omega, Initial residual = 0.0624431, Final residual = 0.00278263, No Iterations 2
bounding omega, min: -25153.1 max: 1.75418e+06 average: 5094.04
smoothSolver:  Solving for omega, Initial residual = 0.0624431, Final residual = 0.00278263, No Iterations 2
bounding omega, min: -25153.1 max: 1.75418e+06 average: 5094.04
smoothSolver:  Solving for k, Initial residual = 0.00224424, Final residual = 0.000136154, No Iterations 2
bounding k, min: -0.0218805 max: 31.0553 average: 0.0620432
ExecutionTime = 24.45 s  ClockTime = 24 s

forceCoeffs forceCoeffs1 write:
    Coefficient	Total	Pressure	Viscous	Internal
    Cd:	-195.536	-195.922	0.386157	0
    Cd(f):	153.137	152.941	0.19591	0
    Cd(r):	-348.673	-348.863	0.190247	0
    Cl:	-501.81	-501.805	-0.0056633	0
    Cl(f):	-14.7093	-14.7076	-0.00160792	0
    Cl(r):	-487.101	-487.097	-0.00405539	0
    CmPitch:	236.196	236.195	0.00122373	0
    CmRoll:	250.905	250.902	0.00283165	0
    CmYaw:	-97.7679	-97.961	0.193079	0
    Cs:	1.63219e-18	1.66432e-18	-3.21303e-20	0
    Cs(f):	-97.7679	-97.961	0.193079	0
    Cs(r):	97.7679	97.961	-0.193079	0

    writing force and moment coefficient files.

Time = 19

smoothSolver:  Solving for k, Initial residual = 0.00224424, Final residual = 0.000136154, No Iterations 2
bounding k, min: -0.0218805 max: 31.0553 average: 0.0620432
ExecutionTime = 24.46 s  ClockTime = 24 s

forceCoeffs forceCoeffs1 write:
    Coefficient	Total	Pressure	Viscous	Internal
    Cd:	-195.536	-195.922	0.386157	0
    Cd(f):	153.137	152.941	0.19591	0
    Cd(r):	-348.673	-348.863	0.190247	0
    Cl:	-501.81	-501.805	-0.0056633	0
    Cl(f):	-14.7093	-14.7076	-0.00160792	0
    Cl(r):	-487.101	-487.097	-0.00405539	0
    CmPitch:	236.196	236.195	0.00122373	0
    CmRoll:	250.905	250.902	0.00283165	0
    CmYaw:	-97.7679	-97.961	0.193079	0
    Cs:	1.63219e-18	1.66432e-18	-3.21303e-20	0
    Cs(f):	-97.7679	-97.961	0.193079	0
    Cs(r):	97.7679	97.961	-0.193079	0

    writing force and moment coefficient files.

Time = 19

smoothSolver:  Solving for Ux, Initial residual = 0.0223651, Final residual = 0.00132021, No Iterations 2
smoothSolver:  Solving for Uy, Initial residual = 0.0329163, Final residual = 0.00219628, No Iterations 2
smoothSolver:  Solving for Ux, Initial residual = 0.0223651, Final residual = 0.00132021, No Iterations 2
smoothSolver:  Solving for Uy, Initial residual = 0.0329163, Final residual = 0.00219628, No Iterations 2
GAMG:  Solving for p, Initial residual = 0.552936, Final residual = 0.0233139, No Iterations 8
GAMG:  Solving for p, Initial residual = 0.552936, Final residual = 0.0233139, No Iterations 8
GAMG:  Solving for p, Initial residual = 0.0245179, Final residual = 0.00112624, No Iterations 33
GAMG:  Solving for p, Initial residual = 0.0245179, Final residual = 0.00112624, No Iterations 33
GAMG:  Solving for p, Initial residual = 0.00318356, Final residual = 0.000127481, No Iterations 18
GAMG:  Solving for p, Initial residual = 0.00318356, Final residual = 0.000127481, No Iterations 18
GAMG:  Solving for p, Initial residual = 0.000613694, Final residual = 2.9751e-05, No Iterations 19
time step continuity errors : sum local = 0.0130069, global = -0.00049902, cumulative = -0.00106248
GAMG:  Solving for p, Initial residual = 0.000613694, Final residual = 2.9751e-05, No Iterations 19
time step continuity errors : sum local = 0.0130069, global = -0.00049902, cumulative = -0.00106248
smoothSolver:  Solving for omega, Initial residual = 0.0538076, Final residual = 0.00269763, No Iterations 2
smoothSolver:  Solving for k, Initial residual = 0.00186999, Final residual = 0.000123739, No Iterations 2
bounding k, min: -0.0344425 max: 34.5714 average: 0.0718617
ExecutionTime = 25.82 s  ClockTime = 26 s

smoothSolver:  Solving for omega, Initial residual = 0.0538076, Final residual = 0.00269763, No Iterations 2
forceCoeffs forceCoeffs1 write:
    Coefficient	Total	Pressure	Viscous	Internal
    Cd:	-8.87052	-9.27848	0.407956	0
    Cd(f):	204.171	203.963	0.208507	0
    Cd(r):	-213.042	-213.241	0.199449	0
    Cl:	-417.213	-417.204	-0.00905832	0
    Cl(f):	-22.7445	-22.7408	-0.00367728	0
    Cl(r):	-394.469	-394.463	-0.00538104	0
    CmPitch:	185.862	185.861	0.000851877	0
    CmRoll:	208.607	208.602	0.00452916	0
    CmYaw:	-4.43526	-4.63924	0.203978	0
    Cs:	3.70248e-19	3.82985e-19	-1.27373e-20	0
    Cs(f):	-4.43526	-4.63924	0.203978	0
    Cs(r):	4.43526	4.63924	-0.203978	0

    writing force and moment coefficient files.

Time = 20

smoothSolver:  Solving for k, Initial residual = 0.00186999, Final residual = 0.000123739, No Iterations 2
bounding k, min: -0.0344425 max: 34.5714 average: 0.0718617
ExecutionTime = 25.84 s  ClockTime = 26 s

forceCoeffs forceCoeffs1 write:
    Coefficient	Total	Pressure	Viscous	Internal
    Cd:	-8.87052	-9.27848	0.407956	0
    Cd(f):	204.171	203.963	0.208507	0
    Cd(r):	-213.042	-213.241	0.199449	0
    Cl:	-417.213	-417.204	-0.00905832	0
    Cl(f):	-22.7445	-22.7408	-0.00367728	0
    Cl(r):	-394.469	-394.463	-0.00538104	0
    CmPitch:	185.862	185.861	0.000851877	0
    CmRoll:	208.607	208.602	0.00452916	0
    CmYaw:	-4.43526	-4.63924	0.203978	0
    Cs:	3.70248e-19	3.82985e-19	-1.27373e-20	0
    Cs(f):	-4.43526	-4.63924	0.203978	0
    Cs(r):	4.43526	4.63924	-0.203978	0

    writing force and moment coefficient files.

Time = 20

smoothSolver:  Solving for Ux, Initial residual = 0.017294, Final residual = 0.00100082, No Iterations 2
smoothSolver:  Solving for Uy, Initial residual = 0.0286108, Final residual = 0.00193242, No Iterations 2
smoothSolver:  Solving for Ux, Initial residual = 0.017294, Final residual = 0.00100082, No Iterations 2
smoothSolver:  Solving for Uy, Initial residual = 0.0286108, Final residual = 0.00193242, No Iterations 2
GAMG:  Solving for p, Initial residual = 0.51822, Final residual = 0.0170953, No Iterations 7
GAMG:  Solving for p, Initial residual = 0.51822, Final residual = 0.0170953, No Iterations 7
GAMG:  Solving for p, Initial residual = 0.0204498, Final residual = 0.000886598, No Iterations 26
GAMG:  Solving for p, Initial residual = 0.0204498, Final residual = 0.000886598, No Iterations 26
GAMG:  Solving for p, Initial residual = 0.00208217, Final residual = 7.09765e-05, No Iterations 16
GAMG:  Solving for p, Initial residual = 0.00208217, Final residual = 7.09765e-05, No Iterations 16
GAMG:  Solving for p, Initial residual = 0.00042934, Final residual = 1.91571e-05, No Iterations 13
time step continuity errors : sum local = 0.00916484, global = -0.000514182, cumulative = -0.00157666
GAMG:  Solving for p, Initial residual = 0.00042934, Final residual = 1.91571e-05, No Iterations 13
time step continuity errors : sum local = 0.00916484, global = -0.000514182, cumulative = -0.00157666
smoothSolver:  Solving for omega, Initial residual = 0.0480466, Final residual = 0.0024312, No Iterations 2
bounding omega, min: -2412.15 max: 1.39563e+06 average: 4903.84
smoothSolver:  Solving for k, Initial residual = 0.00154723, Final residual = 8.6204e-05, No Iterations 2
bounding k, min: -0.102653 max: 38.5095 average: 0.0825024
ExecutionTime = 26.99 s  ClockTime = 27 s

smoothSolver:  Solving for omega, Initial residual = 0.0480466, Final residual = 0.0024312, No Iterations 2
bounding omega, min: -2412.15 max: 1.39563e+06 average: 4903.84
forceCoeffs forceCoeffs1 write:
    Coefficient	Total	Pressure	Viscous	Internal
    Cd:	118.647	118.207	0.4399	0
    Cd(f):	190.354	190.13	0.224438	0
    Cd(r):	-71.7071	-71.9225	0.215462	0
    Cl:	-262.061	-262.052	-0.0089755	0
    Cl(f):	-22.5635	-22.5591	-0.00438991	0
    Cl(r):	-239.498	-239.493	-0.00458558	0
    CmPitch:	108.467	108.467	9.78343e-05	0
    CmRoll:	131.031	131.026	0.00448775	0
    CmYaw:	59.3235	59.1035	0.21995	0
    Cs:	-2.51675e-18	-2.58391e-18	6.71632e-20	0
    Cs(f):	59.3235	59.1035	0.21995	0
    Cs(r):	-59.3235	-59.1035	-0.21995	0

    writing force and moment coefficient files.

Time = 21

smoothSolver:  Solving for k, Initial residual = 0.00154723, Final residual = 8.6204e-05, No Iterations 2
bounding k, min: -0.102653 max: 38.5095 average: 0.0825024
ExecutionTime = 27.01 s  ClockTime = 27 s

forceCoeffs forceCoeffs1 write:
    Coefficient	Total	Pressure	Viscous	Internal
    Cd:	118.647	118.207	0.4399	0
    Cd(f):	190.354	190.13	0.224438	0
    Cd(r):	-71.7071	-71.9225	0.215462	0
    Cl:	-262.061	-262.052	-0.0089755	0
    Cl(f):	-22.5635	-22.5591	-0.00438991	0
    Cl(r):	-239.498	-239.493	-0.00458558	0
    CmPitch:	108.467	108.467	9.78343e-05	0
    CmRoll:	131.031	131.026	0.00448775	0
    CmYaw:	59.3235	59.1035	0.21995	0
    Cs:	-2.51675e-18	-2.58391e-18	6.71632e-20	0
    Cs(f):	59.3235	59.1035	0.21995	0
    Cs(r):	-59.3235	-59.1035	-0.21995	0

    writing force and moment coefficient files.

Time = 21

smoothSolver:  Solving for Ux, Initial residual = 0.0182933, Final residual = 0.00113243, No Iterations 2
smoothSolver:  Solving for Uy, Initial residual = 0.0259478, Final residual = 0.00182503, No Iterations 2
smoothSolver:  Solving for Ux, Initial residual = 0.0182933, Final residual = 0.00113243, No Iterations 2
smoothSolver:  Solving for Uy, Initial residual = 0.0259478, Final residual = 0.00182503, No Iterations 2
GAMG:  Solving for p, Initial residual = 0.507374, Final residual = 0.0245955, No Iterations 5
GAMG:  Solving for p, Initial residual = 0.507374, Final residual = 0.0245955, No Iterations 5
GAMG:  Solving for p, Initial residual = 0.0245568, Final residual = 0.000872315, No Iterations 25
GAMG:  Solving for p, Initial residual = 0.0245568, Final residual = 0.000872315, No Iterations 25
GAMG:  Solving for p, Initial residual = 0.00191886, Final residual = 7.43707e-05, No Iterations 12
GAMG:  Solving for p, Initial residual = 0.00191886, Final residual = 7.43707e-05, No Iterations 12
GAMG:  Solving for p, Initial residual = 0.000279341, Final residual = 1.06412e-05, No Iterations 18
time step continuity errors : sum local = 0.00542693, global = -0.00031058, cumulative = -0.00188724
GAMG:  Solving for p, Initial residual = 0.000279341, Final residual = 1.06412e-05, No Iterations 18
time step continuity errors : sum local = 0.00542693, global = -0.00031058, cumulative = -0.00188724
smoothSolver:  Solving for omega, Initial residual = 0.0441367, Final residual = 0.00209588, No Iterations 2
smoothSolver:  Solving for k, Initial residual = 0.00136688, Final residual = 8.90089e-05, No Iterations 2
bounding k, min: -0.000261585 max: 42.684 average: 0.0941047
ExecutionTime = 28.13 s  ClockTime = 28 s

forceCoeffs forceCoeffs1 write:
    Coefficient	Total	Pressure	Viscous	Internal
smoothSolver:  Solving for omega, Initial residual = 0.0441367, Final residual = 0.00209588, No Iterations 2
    Cd:	155.058	154.581	0.477218	0
    Cd(f):	125.868	125.626	0.241672	0
    Cd(r):	29.19	28.9545	0.235546	0
    Cl:	-96.6779	-96.6718	-0.00612579	0
    Cl(f):	-15.5117	-15.508	-0.0037557	0
    Cl(r):	-81.1662	-81.1638	-0.00237009	0
    CmPitch:	32.8272	32.8279	-0.000692806	0
    CmRoll:	48.339	48.3359	0.00306289	0
    CmYaw:	77.529	77.2904	0.238609	0
    Cs:	-5.31277e-18	-5.54873e-18	2.35966e-19	0
    Cs(f):	77.529	77.2904	0.238609	0
    Cs(r):	-77.529	-77.2904	-0.238609	0

    writing force and moment coefficient files.

Time = 22

smoothSolver:  Solving for k, Initial residual = 0.00136688, Final residual = 8.90089e-05, No Iterations 2
bounding k, min: -0.000261585 max: 42.684 average: 0.0941047
ExecutionTime = 28.16 s  ClockTime = 28 s

forceCoeffs forceCoeffs1 write:
    Coefficient	Total	Pressure	Viscous	Internal
    Cd:	155.058	154.581	0.477218	0
    Cd(f):	125.868	125.626	0.241672	0
    Cd(r):	29.19	28.9545	0.235546	0
    Cl:	-96.6779	-96.6718	-0.00612579	0
    Cl(f):	-15.5117	-15.508	-0.0037557	0
    Cl(r):	-81.1662	-81.1638	-0.00237009	0
    CmPitch:	32.8272	32.8279	-0.000692806	0
    CmRoll:	48.339	48.3359	0.00306289	0
    CmYaw:	77.529	77.2904	0.238609	0
    Cs:	-5.31277e-18	-5.54873e-18	2.35966e-19	0
    Cs(f):	77.529	77.2904	0.238609	0
    Cs(r):	-77.529	-77.2904	-0.238609	0

    writing force and moment coefficient files.

Time = 22

smoothSolver:  Solving for Ux, Initial residual = 0.0173222, Final residual = 0.000985236, No Iterations 2
smoothSolver:  Solving for Uy, Initial residual = 0.0246895, Final residual = 0.00163474, No Iterations 2
smoothSolver:  Solving for Ux, Initial residual = 0.0173222, Final residual = 0.000985236, No Iterations 2
GAMG:  Solving for p, Initial residual = 0.442157, Final residual = 0.0176699, No Iterations 5
smoothSolver:  Solving for Uy, Initial residual = 0.0246895, Final residual = 0.00163474, No Iterations 2
GAMG:  Solving for p, Initial residual = 0.442157, Final residual = 0.0176699, No Iterations 5
GAMG:  Solving for p, Initial residual = 0.0177269, Final residual = 0.000640265, No Iterations 29
GAMG:  Solving for p, Initial residual = 0.0177269, Final residual = 0.000640265, No Iterations 29
GAMG:  Solving for p, Initial residual = 0.00138299, Final residual = 5.12131e-05, No Iterations 14
GAMG:  Solving for p, Initial residual = 0.00138299, Final residual = 5.12131e-05, No Iterations 14
GAMG:  Solving for p, Initial residual = 0.000218453, Final residual = 1.0895e-05, No Iterations 17
time step continuity errors : sum local = 0.00581771, global = -0.000459356, cumulative = -0.0023466
smoothSolver:  Solving for omega, Initial residual = 0.0461284, Final residual = 0.00174499, No Iterations 2
bounding omega, min: -21340.3 max: 1.12828e+06 average: 4786.08
GAMG:  Solving for p, Initial residual = 0.000218453, Final residual = 1.0895e-05, No Iterations 17
time step continuity errors : sum local = 0.00581771, global = -0.000459356, cumulative = -0.0023466
smoothSolver:  Solving for k, Initial residual = 0.00116774, Final residual = 6.62184e-05, No Iterations 2
bounding k, min: -0.0275735 max: 46.3018 average: 0.106743
ExecutionTime = 29.36 s  ClockTime = 29 s

forceCoeffs forceCoeffs1 write:
    Coefficient	Total	Pressure	Viscous	Internal
    Cd:	128.12	127.607	0.512584	0
    Cd(f):	50.9663	50.7092	0.257159	0
    Cd(r):	77.1537	76.8982	0.255425	0
    Cl:	26.1873	26.1891	-0.00173433	0
    Cl(f):	-4.1071	-4.10484	-0.00226354	0
    Cl(r):	30.2944	30.2939	0.00052921	0
    CmPitch:	-17.2008	-17.1994	-0.00139638	0
    CmRoll:	-13.0937	-13.0945	0.000867166	0
    CmYaw:	64.06	63.8037	0.256292	0
    Cs:	-7.28193e-18	-7.57957e-18	2.97639e-19	0
    Cs(f):	64.06	63.8037	0.256292	0
    Cs(r):	-64.06	-63.8037	-0.256292	0

    writing force and moment coefficient files.

Time = 23

smoothSolver:  Solving for omega, Initial residual = 0.0461284, Final residual = 0.00174499, No Iterations 2
bounding omega, min: -21340.3 max: 1.12828e+06 average: 4786.08
smoothSolver:  Solving for k, Initial residual = 0.00116774, Final residual = 6.62184e-05, No Iterations 2
bounding k, min: -0.0275735 max: 46.3018 average: 0.106743
ExecutionTime = 29.43 s  ClockTime = 29 s

smoothSolver:  Solving for Ux, Initial residual = 0.0137015, Final residual = 0.000954135, No Iterations 2
smoothSolver:  Solving for Uy, Initial residual = 0.022096, Final residual = 0.00151582, No Iterations 2
forceCoeffs forceCoeffs1 write:
    Coefficient	Total	Pressure	Viscous	Internal
    Cd:	128.12	127.607	0.512584	0
    Cd(f):	50.9663	50.7092	0.257159	0
    Cd(r):	77.1537	76.8982	0.255425	0
    Cl:	26.1873	26.1891	-0.00173433	0
[...]
    Cl(r):	-151.075	-151.062	-0.0128664	0
    CmPitch:	76.2008	76.1972	0.00364194	0
    CmRoll:	74.8745	74.8653	0.00922449	0
    CmYaw:	30.7184	30.2265	0.491929	0
    Cs:	-1.17773e-18	-1.21961e-18	4.18862e-20	0
    Cs(f):	30.7184	30.2265	0.491929	0
    Cs(r):	-30.7184	-30.2265	-0.491929	0

    writing force and moment coefficient files.

Time = 95

GAMG:  Solving for p, Initial residual = 0.186697, Final residual = 0.00660637, No Iterations 4
smoothSolver:  Solving for Ux, Initial residual = 0.00409121, Final residual = 0.000352712, No Iterations 2
smoothSolver:  Solving for Uy, Initial residual = 0.00926251, Final residual = 0.000769289, No Iterations 2
GAMG:  Solving for p, Initial residual = 0.00662997, Final residual = 0.000289252, No Iterations 13
GAMG:  Solving for p, Initial residual = 0.186697, Final residual = 0.00660637, No Iterations 4
GAMG:  Solving for p, Initial residual = 0.00662997, Final residual = 0.000289252, No Iterations 13
GAMG:  Solving for p, Initial residual = 0.000391981, Final residual = 1.77555e-05, No Iterations 18
GAMG:  Solving for p, Initial residual = 5.62688e-05, Final residual = 1.93056e-06, No Iterations 14
GAMG:  Solving for p, Initial residual = 0.000391981, Final residual = 1.77555e-05, No Iterations 18
time step continuity errors : sum local = 0.000133369, global = 1.04927e-05, cumulative = 8.34995e-05
smoothSolver:  Solving for omega, Initial residual = 0.00979545, Final residual = 0.000861787, No Iterations 2
smoothSolver:  Solving for k, Initial residual = 0.000226162, Final residual = 1.05823e-05, No Iterations 2
bounding k, min: -0.00722474 max: 285.113 average: 0.928754
ExecutionTime = 115.6 s  ClockTime = 115 s

forceCoeffs forceCoeffs1 write:
    Coefficient	Total	Pressure	Viscous	Internal
    Cd:	59.7699	58.78	0.989915	0
    Cd(f):	105.285	104.781	0.504294	0
    Cd(r):	-45.5156	-46.0012	0.485621	0
    Cl:	-150.801	-150.782	-0.0186722	0
    Cl(f):	1.40998	1.4156	-0.00561904	0
    Cl(r):	-152.211	-152.198	-0.0130532	0
    CmPitch:	76.8105	76.8068	0.00371708	0
    CmRoll:	75.4005	75.3912	0.00933612	0
    CmYaw:	29.8849	29.39	0.494958	0
    Cs:	-1.14496e-18	-1.17823e-18	3.32704e-20	0
    Cs(f):	29.8849	29.39	0.494958	0
    Cs(r):	-29.8849	-29.39	-0.494958	0

    writing force and moment coefficient files.

Time = 96

GAMG:  Solving for p, Initial residual = 5.62688e-05, Final residual = 1.93056e-06, No Iterations 14
time step continuity errors : sum local = 0.000133369, global = 1.04927e-05, cumulative = 8.34995e-05
smoothSolver:  Solving for Ux, Initial residual = 0.00407942, Final residual = 0.000350751, No Iterations 2
smoothSolver:  Solving for omega, Initial residual = 0.00979545, Final residual = 0.000861787, No Iterations 2
smoothSolver:  Solving for Uy, Initial residual = 0.00921292, Final residual = 0.000765433, No Iterations 2
smoothSolver:  Solving for k, Initial residual = 0.000226162, Final residual = 1.05823e-05, No Iterations 2
bounding k, min: -0.00722474 max: 285.113 average: 0.928754
ExecutionTime = 115.53 s  ClockTime = 116 s

forceCoeffs forceCoeffs1 write:
    Coefficient	Total	Pressure	Viscous	Internal
    Cd:	59.7699	58.78	0.989915	0
    Cd(f):	105.285	104.781	0.504294	0
    Cd(r):	-45.5156	-46.0012	0.485621	0
    Cl:	-150.801	-150.782	-0.0186722	0
    Cl(f):	1.40998	1.4156	-0.00561904	0
    Cl(r):	-152.211	-152.198	-0.0130532	0
    CmPitch:	76.8105	76.8068	0.00371708	0
    CmRoll:	75.4005	75.3912	0.00933612	0
    CmYaw:	29.8849	29.39	0.494958	0
    Cs:	-1.14496e-18	-1.17823e-18	3.32704e-20	0
    Cs(f):	29.8849	29.39	0.494958	0
    Cs(r):	-29.8849	-29.39	-0.494958	0

    writing force and moment coefficient files.

Time = 96

GAMG:  Solving for p, Initial residual = 0.185339, Final residual = 0.00713769, No Iterations 4
smoothSolver:  Solving for Ux, Initial residual = 0.00407942, Final residual = 0.000350751, No Iterations 2
smoothSolver:  Solving for Uy, Initial residual = 0.00921292, Final residual = 0.000765433, No Iterations 2
GAMG:  Solving for p, Initial residual = 0.00708459, Final residual = 0.000292939, No Iterations 13
GAMG:  Solving for p, Initial residual = 0.185339, Final residual = 0.00713769, No Iterations 4
GAMG:  Solving for p, Initial residual = 0.00708459, Final residual = 0.000292939, No Iterations 13
GAMG:  Solving for p, Initial residual = 0.000421201, Final residual = 1.53e-05, No Iterations 18
GAMG:  Solving for p, Initial residual = 5.98057e-05, Final residual = 2.86576e-06, No Iterations 14
GAMG:  Solving for p, Initial residual = 0.000421201, Final residual = 1.53e-05, No Iterations 18
time step continuity errors : sum local = 0.000189237, global = 1.43157e-05, cumulative = 9.78151e-05
smoothSolver:  Solving for omega, Initial residual = 0.00960804, Final residual = 0.000848547, No Iterations 2
smoothSolver:  Solving for k, Initial residual = 0.000225374, Final residual = 1.07449e-05, No Iterations 2
bounding k, min: -0.0207645 max: 291.985 average: 0.939547
ExecutionTime = 116.71 s  ClockTime = 117 s

forceCoeffs forceCoeffs1 write:
    Coefficient	Total	Pressure	Viscous	Internal
    Cd:	57.464	56.4683	0.995671	0
    Cd(f):	105.477	104.97	0.507292	0
    Cd(r):	-48.0128	-48.5012	0.488379	0
    Cl:	-153.49	-153.471	-0.0189131	0
    Cl(f):	1.50419	1.50985	-0.00566335	0
    Cl(r):	-154.994	-154.981	-0.0132498	0
    CmPitch:	78.249	78.2452	0.00379321	0
    CmRoll:	76.7448	76.7354	0.00945656	0
    CmYaw:	28.732	28.2342	0.497836	0
    Cs:	-1.09656e-18	-1.12527e-18	2.87036e-20	0
    Cs(f):	28.732	28.2342	0.497836	0
    Cs(r):	-28.732	-28.2342	-0.497836	0

    writing force and moment coefficient files.

Time = 97

GAMG:  Solving for p, Initial residual = 5.98057e-05, Final residual = 2.86576e-06, No Iterations 14
time step continuity errors : sum local = 0.000189237, global = 1.43157e-05, cumulative = 9.78151e-05
smoothSolver:  Solving for Ux, Initial residual = 0.00406216, Final residual = 0.000351097, No Iterations 2
smoothSolver:  Solving for omega, Initial residual = 0.00960804, Final residual = 0.000848547, No Iterations 2
smoothSolver:  Solving for Uy, Initial residual = 0.00918505, Final residual = 0.000760884, No Iterations 2
smoothSolver:  Solving for k, Initial residual = 0.000225374, Final residual = 1.07449e-05, No Iterations 2
bounding k, min: -0.0207645 max: 291.985 average: 0.939547
ExecutionTime = 116.67 s  ClockTime = 117 s

forceCoeffs forceCoeffs1 write:
    Coefficient	Total	Pressure	Viscous	Internal
    Cd:	57.464	56.4683	0.995671	0
    Cd(f):	105.477	104.97	0.507292	0
    Cd(r):	-48.0128	-48.5012	0.488379	0
    Cl:	-153.49	-153.471	-0.0189131	0
    Cl(f):	1.50419	1.50985	-0.00566335	0
    Cl(r):	-154.994	-154.981	-0.0132498	0
    CmPitch:	78.249	78.2452	0.00379321	0
    CmRoll:	76.7448	76.7354	0.00945656	0
    CmYaw:	28.732	28.2342	0.497836	0
    Cs:	-1.09656e-18	-1.12527e-18	2.87036e-20	0
    Cs(f):	28.732	28.2342	0.497836	0
    Cs(r):	-28.732	-28.2342	-0.497836	0

    writing force and moment coefficient files.

Time = 97

GAMG:  Solving for p, Initial residual = 0.190863, Final residual = 0.00760151, No Iterations 4
smoothSolver:  Solving for Ux, Initial residual = 0.00406216, Final residual = 0.000351097, No Iterations 2
smoothSolver:  Solving for Uy, Initial residual = 0.00918505, Final residual = 0.000760884, No Iterations 2
GAMG:  Solving for p, Initial residual = 0.00749635, Final residual = 0.000343748, No Iterations 13
GAMG:  Solving for p, Initial residual = 0.190863, Final residual = 0.00760151, No Iterations 4
GAMG:  Solving for p, Initial residual = 0.00749635, Final residual = 0.000343748, No Iterations 13
GAMG:  Solving for p, Initial residual = 0.000468824, Final residual = 2.07779e-05, No Iterations 18
GAMG:  Solving for p, Initial residual = 0.000468824, Final residual = 2.07779e-05, No Iterations 18
GAMG:  Solving for p, Initial residual = 6.53136e-05, Final residual = 2.51666e-06, No Iterations 16
time step continuity errors : sum local = 0.000161392, global = 1.0008e-05, cumulative = 0.000107823
smoothSolver:  Solving for omega, Initial residual = 0.00952897, Final residual = 0.000837902, No Iterations 2
smoothSolver:  Solving for k, Initial residual = 0.00022499, Final residual = 1.057e-05, No Iterations 2
bounding k, min: -0.0119835 max: 298.826 average: 0.950388
ExecutionTime = 117.84 s  ClockTime = 118 s

forceCoeffs forceCoeffs1 write:
    Coefficient	Total	Pressure	Viscous	Internal
    Cd:	55.3281	54.327	1.00109	0
    Cd(f):	106.521	106.01	0.510142	0
    Cd(r):	-51.1925	-51.6835	0.490951	0
    Cl:	-157.713	-157.694	-0.0191911	0
    Cl(f):	1.65613	1.66186	-0.00572733	0
    Cl(r):	-159.369	-159.356	-0.0134637	0
    CmPitch:	80.5127	80.5088	0.0038682	0
    CmRoll:	78.8566	78.847	0.00959553	0
    CmYaw:	27.664	27.1635	0.500547	0
    Cs:	-1.03408e-18	-1.07664e-18	4.25589e-20	0
    Cs(f):	27.664	27.1635	0.500547	0
    Cs(r):	-27.664	-27.1635	-0.500547	0

    writing force and moment coefficient files.

Time = 98

GAMG:  Solving for p, Initial residual = 6.53136e-05, Final residual = 2.51666e-06, No Iterations 16
time step continuity errors : sum local = 0.000161392, global = 1.0008e-05, cumulative = 0.000107823
smoothSolver:  Solving for omega, Initial residual = 0.00952897, Final residual = 0.000837902, No Iterations 2
smoothSolver:  Solving for Ux, Initial residual = 0.00404662, Final residual = 0.000349353, No Iterations 2
smoothSolver:  Solving for Uy, Initial residual = 0.00916434, Final residual = 0.000756145, No Iterations 2
smoothSolver:  Solving for k, Initial residual = 0.00022499, Final residual = 1.057e-05, No Iterations 2
bounding k, min: -0.0119835 max: 298.826 average: 0.950388
ExecutionTime = 117.75 s  ClockTime = 118 s

forceCoeffs forceCoeffs1 write:
    Coefficient	Total	Pressure	Viscous	Internal
    Cd:	55.3281	54.327	1.00109	0
    Cd(f):	106.521	106.01	0.510142	0
    Cd(r):	-51.1925	-51.6835	0.490951	0
    Cl:	-157.713	-157.694	-0.0191911	0
    Cl(f):	1.65613	1.66186	-0.00572733	0
    Cl(r):	-159.369	-159.356	-0.0134637	0
    CmPitch:	80.5127	80.5088	0.0038682	0
    CmRoll:	78.8566	78.847	0.00959553	0
    CmYaw:	27.664	27.1635	0.500547	0
    Cs:	-1.03408e-18	-1.07664e-18	4.25589e-20	0
    Cs(f):	27.664	27.1635	0.500547	0
    Cs(r):	-27.664	-27.1635	-0.500547	0

    writing force and moment coefficient files.

Time = 98

GAMG:  Solving for p, Initial residual = 0.192028, Final residual = 0.00778187, No Iterations 4
smoothSolver:  Solving for Ux, Initial residual = 0.00404662, Final residual = 0.000349353, No Iterations 2
smoothSolver:  Solving for Uy, Initial residual = 0.00916434, Final residual = 0.000756145, No Iterations 2
GAMG:  Solving for p, Initial residual = 0.192028, Final residual = 0.00778187, No Iterations 4
GAMG:  Solving for p, Initial residual = 0.00766028, Final residual = 0.000300037, No Iterations 15
GAMG:  Solving for p, Initial residual = 0.00766028, Final residual = 0.000300037, No Iterations 15
GAMG:  Solving for p, Initial residual = 0.000437092, Final residual = 1.86155e-05, No Iterations 18
GAMG:  Solving for p, Initial residual = 0.000437092, Final residual = 1.86155e-05, No Iterations 18
GAMG:  Solving for p, Initial residual = 5.33231e-05, Final residual = 2.30372e-06, No Iterations 14
time step continuity errors : sum local = 0.000141599, global = 8.99097e-06, cumulative = 0.000116814
smoothSolver:  Solving for omega, Initial residual = 0.00953616, Final residual = 0.000831316, No Iterations 2
smoothSolver:  Solving for k, Initial residual = 0.000224312, Final residual = 1.05798e-05, No Iterations 2
bounding k, min: -0.0030872 max: 305.613 average: 0.961301
ExecutionTime = 118.9 s  ClockTime = 119 s

forceCoeffs forceCoeffs1 write:
    Coefficient	Total	Pressure	Viscous	Internal
    Cd:	53.7797	52.7735	1.00625	0
    Cd(f):	108.273	107.76	0.512868	0
    Cd(r):	-54.4928	-54.9862	0.493385	0
    Cl:	-162.765	-162.746	-0.0194826	0
    Cl(f):	1.79045	1.79626	-0.00580619	0
    Cl(r):	-164.556	-164.542	-0.0136764	0
    CmPitch:	83.1731	83.1692	0.00393512	0
    CmRoll:	81.3827	81.3729	0.00974131	0
    CmYaw:	26.8899	26.3867	0.503126	0
    Cs:	-1.00036e-18	-1.02911e-18	2.87456e-20	0
    Cs(f):	26.8899	26.3867	0.503126	0
    Cs(r):	-26.8899	-26.3867	-0.503126	0

    writing force and moment coefficient files.

Time = 99

GAMG:  Solving for p, Initial residual = 5.33231e-05, Final residual = 2.30372e-06, No Iterations 14
time step continuity errors : sum local = 0.000141599, global = 8.99097e-06, cumulative = 0.000116814
smoothSolver:  Solving for omega, Initial residual = 0.00953616, Final residual = 0.000831316, No Iterations 2
smoothSolver:  Solving for Ux, Initial residual = 0.00403976, Final residual = 0.000348593, No Iterations 2
smoothSolver:  Solving for Uy, Initial residual = 0.00914525, Final residual = 0.00075598, No Iterations 2
smoothSolver:  Solving for k, Initial residual = 0.000224312, Final residual = 1.05798e-05, No Iterations 2
bounding k, min: -0.0030872 max: 305.613 average: 0.961301
ExecutionTime = 118.79 s  ClockTime = 119 s

forceCoeffs forceCoeffs1 write:
    Coefficient	Total	Pressure	Viscous	Internal
    Cd:	53.7797	52.7735	1.00625	0
    Cd(f):	108.273	107.76	0.512868	0
    Cd(r):	-54.4928	-54.9862	0.493385	0
    Cl:	-162.765	-162.746	-0.0194826	0
    Cl(f):	1.79045	1.79626	-0.00580619	0
    Cl(r):	-164.556	-164.542	-0.0136764	0
    CmPitch:	83.1731	83.1692	0.00393512	0
    CmRoll:	81.3827	81.3729	0.00974131	0
    CmYaw:	26.8899	26.3867	0.503126	0
    Cs:	-1.00036e-18	-1.02911e-18	2.87456e-20	0
    Cs(f):	26.8899	26.3867	0.503126	0
    Cs(r):	-26.8899	-26.3867	-0.503126	0

    writing force and moment coefficient files.

Time = 99

GAMG:  Solving for p, Initial residual = 0.195482, Final residual = 0.00810461, No Iterations 4
smoothSolver:  Solving for Ux, Initial residual = 0.00403976, Final residual = 0.000348593, No Iterations 2
smoothSolver:  Solving for Uy, Initial residual = 0.00914525, Final residual = 0.00075598, No Iterations 2
GAMG:  Solving for p, Initial residual = 0.195482, Final residual = 0.00810461, No Iterations 4
GAMG:  Solving for p, Initial residual = 0.00794032, Final residual = 0.00033831, No Iterations 17
GAMG:  Solving for p, Initial residual = 0.00794032, Final residual = 0.00033831, No Iterations 17
GAMG:  Solving for p, Initial residual = 0.0004713, Final residual = 2.12066e-05, No Iterations 18
GAMG:  Solving for p, Initial residual = 0.0004713, Final residual = 2.12066e-05, No Iterations 18
GAMG:  Solving for p, Initial residual = 5.35571e-05, Final residual = 1.85696e-06, No Iterations 16
time step continuity errors : sum local = 0.000110957, global = 7.13946e-06, cumulative = 0.000123954
smoothSolver:  Solving for omega, Initial residual = 0.00950554, Final residual = 0.000836347, No Iterations 2
smoothSolver:  Solving for k, Initial residual = 0.000223993, Final residual = 1.0599e-05, No Iterations 2
bounding k, min: -0.0100698 max: 312.312 average: 0.972304
ExecutionTime = 119.99 s  ClockTime = 120 s

forceCoeffs forceCoeffs1 write:
    Coefficient	Total	Pressure	Viscous	Internal
    Cd:	52.9795	51.9683	1.01126	0
    Cd(f):	110.71	110.194	0.515517	0
    Cd(r):	-57.73	-58.2258	0.495741	0
    Cl:	-168.44	-168.42	-0.0197764	0
    Cl(f):	1.89355	1.89943	-0.00588854	0
    Cl(r):	-170.333	-170.319	-0.0138879	0
    CmPitch:	86.1133	86.1093	0.00399967	0
    CmRoll:	84.2198	84.2099	0.0098882	0
    CmYaw:	26.4898	25.9841	0.505629	0
    Cs:	-9.63943e-19	-9.88844e-19	2.49011e-20	0
    Cs(f):	26.4898	25.9841	0.505629	0
    Cs(r):	-26.4898	-25.9841	-0.505629	0

    writing force and moment coefficient files.

Time = 100

GAMG:  Solving for p, Initial residual = 5.35571e-05, Final residual = 1.85696e-06, No Iterations 16
time step continuity errors : sum local = 0.000110957, global = 7.13946e-06, cumulative = 0.000123954
smoothSolver:  Solving for Ux, Initial residual = 0.00400878, Final residual = 0.000347277, No Iterations 2
smoothSolver:  Solving for omega, Initial residual = 0.00950554, Final residual = 0.000836347, No Iterations 2
smoothSolver:  Solving for Uy, Initial residual = 0.00907618, Final residual = 0.000753136, No Iterations 2
smoothSolver:  Solving for k, Initial residual = 0.000223993, Final residual = 1.0599e-05, No Iterations 2
bounding k, min: -0.0100698 max: 312.312 average: 0.972304
ExecutionTime = 119.88 s  ClockTime = 120 s

forceCoeffs forceCoeffs1 write:
    Coefficient	Total	Pressure	Viscous	Internal
    Cd:	52.9795	51.9683	1.01126	0
    Cd(f):	110.71	110.194	0.515517	0
    Cd(r):	-57.73	-58.2258	0.495741	0
    Cl:	-168.44	-168.42	-0.0197764	0
    Cl(f):	1.89355	1.89943	-0.00588854	0
    Cl(r):	-170.333	-170.319	-0.0138879	0
    CmPitch:	86.1133	86.1093	0.00399967	0
    CmRoll:	84.2198	84.2099	0.0098882	0
    CmYaw:	26.4898	25.9841	0.505629	0
    Cs:	-9.63943e-19	-9.88844e-19	2.49011e-20	0
    Cs(f):	26.4898	25.9841	0.505629	0
    Cs(r):	-26.4898	-25.9841	-0.505629	0

    writing force and moment coefficient files.

Time = 100

GAMG:  Solving for p, Initial residual = 0.20201, Final residual = 0.00810701, No Iterations 4
smoothSolver:  Solving for Ux, Initial residual = 0.00400878, Final residual = 0.000347277, No Iterations 2
smoothSolver:  Solving for Uy, Initial residual = 0.00907618, Final residual = 0.000753136, No Iterations 2
GAMG:  Solving for p, Initial residual = 0.20201, Final residual = 0.00810701, No Iterations 4
GAMG:  Solving for p, Initial residual = 0.00798782, Final residual = 0.000380449, No Iterations 15
GAMG:  Solving for p, Initial residual = 0.00798782, Final residual = 0.000380449, No Iterations 15
GAMG:  Solving for p, Initial residual = 0.000495457, Final residual = 1.9821e-05, No Iterations 20
GAMG:  Solving for p, Initial residual = 5.05748e-05, Final residual = 2.23103e-06, No Iterations 14
GAMG:  Solving for p, Initial residual = 0.000495457, Final residual = 1.9821e-05, No Iterations 20
time step continuity errors : sum local = 0.000131216, global = 8.54986e-06, cumulative = 0.000132503
smoothSolver:  Solving for omega, Initial residual = 0.00932969, Final residual = 0.000825457, No Iterations 2
smoothSolver:  Solving for k, Initial residual = 0.00022306, Final residual = 1.04993e-05, No Iterations 2
bounding k, min: -0.00163729 max: 318.925 average: 0.983372
GAMG:  Solving for p, Initial residual = 5.05748e-05, Final residual = 2.23103e-06, No Iterations 14
time step continuity errors : sum local = 0.000131216, global = 8.54986e-06, cumulative = 0.000132503
smoothSolver:  Solving for omega, Initial residual = 0.00932969, Final residual = 0.000825457, No Iterations 2
smoothSolver:  Solving for k, Initial residual = 0.00022306, Final residual = 1.04993e-05, No Iterations 2
bounding k, min: -0.00163729 max: 318.925 average: 0.983372
ExecutionTime = 121.91 s  ClockTime = 122 s

forceCoeffs forceCoeffs1 write:
    Coefficient	Total	Pressure	Viscous	Internal
    Cd:	52.9153	51.8991	1.01618	0
    Cd(f):	113.053	112.535	0.518119	0
    Cd(r):	-60.138	-60.6361	0.498064	0
    Cl:	-173.191	-173.171	-0.0200546	0
    Cl(f):	1.88551	1.89148	-0.0059731	0
    Cl(r):	-175.077	-175.063	-0.0140815	0
    CmPitch:	88.4812	88.4771	0.00405418	0
    CmRoll:	86.5957	86.5856	0.0100273	0
    CmYaw:	26.4577	25.9496	0.508091	0
    Cs:	-9.32681e-19	-9.62777e-19	3.0096e-20	0
    Cs(f):	26.4577	25.9496	0.508091	0
    Cs(r):	-26.4577	-25.9496	-0.508091	0

    writing force and moment coefficient files.

End

ExecutionTime = 121.82 s  ClockTime = 122 s

forceCoeffs forceCoeffs1 write:
    Coefficient	Total	Pressure	Viscous	Internal
    Cd:	52.9153	51.8991	1.01618	0
    Cd(f):	113.053	112.535	0.518119	0
    Cd(r):	-60.138	-60.6361	0.498064	0
    Cl:	-173.191	-173.171	-0.0200546	0
    Cl(f):	1.88551	1.89148	-0.0059731	0
    Cl(r):	-175.077	-175.063	-0.0140815	0
    CmPitch:	88.4812	88.4771	0.00405418	0
    CmRoll:	86.5957	86.5856	0.0100273	0
    CmYaw:	26.4577	25.9496	0.508091	0
    Cs:	-9.32681e-19	-9.62777e-19	3.0096e-20	0
    Cs(f):	26.4577	25.9496	0.508091	0
    Cs(r):	-26.4577	-25.9496	-0.508091	0

    writing force and moment coefficient files.

End

