/*---------------------------------------------------------------------------*\
| =========                 |                                                 |
| \\      /  F ield         | OpenFOAM: The Open Source CFD Toolbox           |
|  \\    /   O peration     | Version:  2212                                  |
|   \\  /    A nd           | Website:  www.openfoam.com                      |
|    \\/     M anipulation  |                                                 |
\*---------------------------------------------------------------------------*/
Build  : _70874860-20230612 OPENFOAM=2212 patch=230612 version=2212
Arch   : "LSB;label=32;scalar=64"
Exec   : decomposePar -force
Date   : Nov 27 2023
Time   : 11:27:05
Host   : maciek-gv62-7rc
PID    : 83825
I/O    : uncollated
Case   : /home/maciek/repository/airSupport/run/NACA0015_AoA[0-3]_k-omega
nProcs : 1
trapFpe: Floating point exception trapping enabled (FOAM_SIGFPE).
fileModificationChecking : Monitoring run-time modified files using timeStampMaster (fileModificationSkew 5, maxFileModificationPolls 20)
allowSystemOperations : Allowing user-supplied system call operations

// * * * * * * * * * * * * * * * * * * * * * * * * * * * * * * * * * * * * * //
Create time



Decomposing mesh

Removing 2 existing processor directories
Create mesh

Calculating distribution of cells
Decomposition method scotch [2] (region region0)

Finished decomposition in 0.1 s

Calculating original mesh data

Distributing cells to processors

Distributing faces to processors

Distributing points to processors

Constructing processor meshes

Processor 0
    Number of cells = 82540
    Number of points = 166780
    Number of faces shared with processor 1 = 294
    Number of processor patches = 1
    Number of processor faces = 294
    Number of boundary faces = 166486

Processor 1
    Number of cells = 82460
    Number of points = 166230
    Number of faces shared with processor 0 = 294
    Number of processor patches = 1
    Number of processor faces = 294
    Number of boundary faces = 165934

Number of processor faces = 294
Max number of cells = 82540 (0.0484848% above average 82500)
Max number of processor patches = 1 (0% above average 1)
Max number of faces between processors = 294 (0% above average 294)

Time = 0

Processor 0: field transfer
Processor 1: field transfer

End

