/*---------------------------------------------------------------------------*\
| =========                 |                                                 |
| \\      /  F ield         | OpenFOAM: The Open Source CFD Toolbox           |
|  \\    /   O peration     | Version:  2212                                  |
|   \\  /    A nd           | Website:  www.openfoam.com                      |
|    \\/     M anipulation  |                                                 |
\*---------------------------------------------------------------------------*/
Build  : _70874860-20230612 OPENFOAM=2212 patch=230612 version=2212
Arch   : "LSB;label=32;scalar=64"
Exec   : simpleFoam
Date   : Nov 27 2023
Time   : 11:27:11
Host   : maciek-gv62-7rc
PID    : 83842
/*---------------------------------------------------------------------------*\
| =========                 |                                                 |
| \\      /  F ield         | OpenFOAM: The Open Source CFD Toolbox           |
|  \\    /   O peration     | Version:  2212                                  |
|   \\  /    A nd           | Website:  www.openfoam.com                      |
|    \\/     M anipulation  |                                                 |
\*---------------------------------------------------------------------------*/
Build  : _70874860-20230612 OPENFOAM=2212 patch=230612 version=2212
Arch   : "LSB;label=32;scalar=64"
Exec   : simpleFoam
Date   : Nov 27 2023
Time   : 11:27:11
Host   : maciek-gv62-7rc
PID    : 83841
I/O    : uncollated
Case   : /home/maciek/repository/airSupport/run/NACA0015_AoA[0-3]_k-omega
nProcs : 1
trapFpe: Floating point exception trapping enabled (FOAM_SIGFPE).
fileModificationChecking : Monitoring run-time modified files using timeStampMaster (fileModificationSkew 5, maxFileModificationPolls 20)
allowSystemOperations : Allowing user-supplied system call operations

// * * * * * * * * * * * * * * * * * * * * * * * * * * * * * * * * * * * * * //
Create time

I/O    : uncollated
Case   : /home/maciek/repository/airSupport/run/NACA0015_AoA[0-3]_k-omega
nProcs : 1
trapFpe: Floating point exception trapping enabled (FOAM_SIGFPE).
fileModificationChecking : Monitoring run-time modified files using timeStampMaster (fileModificationSkew 5, maxFileModificationPolls 20)
allowSystemOperations : Allowing user-supplied system call operations

// * * * * * * * * * * * * * * * * * * * * * * * * * * * * * * * * * * * * * //
Create time

Create mesh for time = 0
Create mesh for time = 0


SIMPLE: convergence criteria
    field U	 tolerance 0.0001
    field p	 tolerance 0.001
    field "(k|epsilon|omega)"	 tolerance 0.001

Reading field p

Reading field U



SIMPLE: convergence criteria
    field U	 tolerance 0.0001
    field p	 tolerance 0.001
    field "(k|epsilon|omega)"	 tolerance 0.001

Reading field p

Reading field U

Reading/calculating face flux field phi

Selecting incompressible transport model Newtonian
Selecting turbulence model type RAS
Selecting RAS turbulence model kOmega
Reading/calculating face flux field phi

Selecting incompressible transport model Newtonian
Selecting turbulence model type RAS
Selecting RAS turbulence model kOmega
bounding k, min: 0 max: 318.925 average: 0.983373
RAS
{
    RASModel        kOmega;
    turbulence      on;
    printCoeffs     on;
    betaStar        0.09;
    beta            0.072;
    gamma           0.52;
    alphaK          0.5;
    alphaOmega      0.5;
}

No MRF models present

No finite volume options present

Starting time loop

forceCoeffs forceCoeffs1:
    rho: rhoInf
    Freestream density (rhoInf) set to 1
    Not including porosity effects
    magUInf: 10
    lRef   : 1
    Aref   : 1
    rhoInf : 1
    Selecting all coefficients
    - Drag force: Cd
    - Drag force front: Cd(f)
    - Drag force rear: Cd(r)
    - Lift force: Cl
    - Lift force front: Cl(f)
    - Lift force rear: Cl(r)
    - Pitch moment: CmPitch
    - Roll moment: CmRoll
    - Yaw moment: CmYaw
    - Side force: Cs
    - Side force front: Cs(f)
    - Side force rear: Cs(r)


Time = 1

bounding k, min: 0 max: 318.925 average: 0.983373
RAS
{
    RASModel        kOmega;
    turbulence      on;
    printCoeffs     on;
    betaStar        0.09;
    beta            0.072;
    gamma           0.52;
    alphaK          0.5;
    alphaOmega      0.5;
}

No MRF models present

No finite volume options present

Starting time loop

forceCoeffs forceCoeffs1:
    rho: rhoInf
    Freestream density (rhoInf) set to 1
    Not including porosity effects
    magUInf: 10
    lRef   : 1
    Aref   : 1
    rhoInf : 1
    Selecting all coefficients
    - Drag force: Cd
    - Drag force front: Cd(f)
    - Drag force rear: Cd(r)
    - Lift force: Cl
    - Lift force front: Cl(f)
    - Lift force rear: Cl(r)
    - Pitch moment: CmPitch
    - Roll moment: CmRoll
    - Yaw moment: CmYaw
    - Side force: Cs
    - Side force front: Cs(f)
    - Side force rear: Cs(r)


Time = 1

smoothSolver:  Solving for Ux, Initial residual = 0.00403265, Final residual = 0.000349014, No Iterations 2
smoothSolver:  Solving for Uy, Initial residual = 0.00900777, Final residual = 0.000748835, No Iterations 2
smoothSolver:  Solving for Ux, Initial residual = 0.00403265, Final residual = 0.000349014, No Iterations 2
smoothSolver:  Solving for Uy, Initial residual = 0.00900777, Final residual = 0.000748835, No Iterations 2
GAMG:  Solving for p, Initial residual = 0.250949, Final residual = 0.0100976, No Iterations 4
GAMG:  Solving for p, Initial residual = 0.250949, Final residual = 0.0100976, No Iterations 4
GAMG:  Solving for p, Initial residual = 0.0087018, Final residual = 0.000411297, No Iterations 13
GAMG:  Solving for p, Initial residual = 0.0087018, Final residual = 0.000411297, No Iterations 13
GAMG:  Solving for p, Initial residual = 0.000515455, Final residual = 1.79282e-05, No Iterations 22
GAMG:  Solving for p, Initial residual = 0.000515455, Final residual = 1.79282e-05, No Iterations 22
GAMG:  Solving for p, Initial residual = 5.04215e-05, Final residual = 1.68635e-06, No Iterations 16
time step continuity errors : sum local = 0.00011177, global = 7.21765e-06, cumulative = 7.21765e-06
smoothSolver:  Solving for omega, Initial residual = 0.00930987, Final residual = 0.000824508, No Iterations 2
GAMG:  Solving for p, Initial residual = 5.04215e-05, Final residual = 1.68635e-06, No Iterations 16
time step continuity errors : sum local = 0.00011177, global = 7.21765e-06, cumulative = 7.21765e-06
smoothSolver:  Solving for k, Initial residual = 0.000222582, Final residual = 1.03903e-05, No Iterations 2
bounding k, min: -0.0060136 max: 325.304 average: 0.99495
ExecutionTime = 2.57 s  ClockTime = 3 s

forceCoeffs forceCoeffs1 write:
    Coefficient	Total	Pressure	Viscous	Internal
    Cd:	52.3072	51.289	1.01819	0
    Cd(f):	113.386	112.867	0.51935	0
    Cd(r):	-61.0793	-61.5782	0.498839	0
    Cl:	-174.466	-174.445	-0.0205106	0
    Cl(f):	1.65277	1.65888	-0.00610908	0
    Cl(r):	-176.119	-176.104	-0.0144015	0
    CmPitch:	88.8857	88.8815	0.00414623	0
    CmRoll:	87.2329	87.2227	0.0102553	0
    CmYaw:	26.1536	25.6445	0.509094	0
    Cs:	-9.61625e-19	-9.89767e-19	2.81421e-20	0
    Cs(f):	26.1536	25.6445	0.509094	0
    Cs(r):	-26.1536	-25.6445	-0.509094	0

    writing force and moment coefficient files.

Time = 2

smoothSolver:  Solving for omega, Initial residual = 0.00930987, Final residual = 0.000824508, No Iterations 2
smoothSolver:  Solving for k, Initial residual = 0.000222582, Final residual = 1.03903e-05, No Iterations 2
bounding k, min: -0.0060136 max: 325.304 average: 0.99495
ExecutionTime = 2.69 s  ClockTime = 3 s

forceCoeffs forceCoeffs1 write:
    Coefficient	Total	Pressure	Viscous	Internal
smoothSolver:  Solving for Ux, Initial residual = 0.00398047, Final residual = 0.000344229, No Iterations 2
    Cd:	52.3072	51.289	1.01819	0
    Cd(f):	113.386	112.867	0.51935	0
    Cd(r):	-61.0793	-61.5782	0.498839	0
    Cl:	-174.466	-174.445	-0.0205106	0
    Cl(f):	1.65277	1.65888	-0.00610908	0
    Cl(r):	-176.119	-176.104	-0.0144015	0
    CmPitch:	88.8857	88.8815	0.00414623	0
    CmRoll:	87.2329	87.2227	0.0102553	0
    CmYaw:	26.1536	25.6445	0.509094	0
    Cs:	-9.61625e-19	-9.89767e-19	2.81421e-20	0
    Cs(f):	26.1536	25.6445	0.509094	0
    Cs(r):	-26.1536	-25.6445	-0.509094	0

    writing force and moment coefficient files.

Time = 2

smoothSolver:  Solving for Uy, Initial residual = 0.00902959, Final residual = 0.00074789, No Iterations 2
GAMG:  Solving for p, Initial residual = 0.199987, Final residual = 0.00892048, No Iterations 4
smoothSolver:  Solving for Ux, Initial residual = 0.00398047, Final residual = 0.000344229, No Iterations 2
smoothSolver:  Solving for Uy, Initial residual = 0.00902959, Final residual = 0.00074789, No Iterations 2
GAMG:  Solving for p, Initial residual = 0.199987, Final residual = 0.00892048, No Iterations 4
GAMG:  Solving for p, Initial residual = 0.00852455, Final residual = 0.000417158, No Iterations 13
GAMG:  Solving for p, Initial residual = 0.00852455, Final residual = 0.000417158, No Iterations 13
GAMG:  Solving for p, Initial residual = 0.000526227, Final residual = 2.47916e-05, No Iterations 22
GAMG:  Solving for p, Initial residual = 0.000526227, Final residual = 2.47916e-05, No Iterations 22
GAMG:  Solving for p, Initial residual = 5.10496e-05, Final residual = 1.90273e-06, No Iterations 16
time step continuity errors : sum local = 0.000118373, global = 8.13133e-06, cumulative = 1.5349e-05
smoothSolver:  Solving for omega, Initial residual = 0.0092248, Final residual = 0.000820461, No Iterations 2
smoothSolver:  Solving for k, Initial residual = 0.000221356, Final residual = 1.04881e-05, No Iterations 2
bounding k, min: -0.00045258 max: 331.678 average: 1.00655
ExecutionTime = 3.7 s  ClockTime = 4 s

GAMG:  Solving for p, Initial residual = 5.10496e-05, Final residual = 1.90273e-06, No Iterations 16
time step continuity errors : sum local = 0.000118373, global = 8.13133e-06, cumulative = 1.5349e-05
forceCoeffs forceCoeffs1 write:
    Coefficient	Total	Pressure	Viscous	Internal
    Cd:	52.686	51.6628	1.02315	0
    Cd(f):	114.807	114.285	0.521867	0
    Cd(r):	-62.1205	-62.6218	0.501285	0
    Cl:	-176.927	-176.906	-0.0205825	0
    Cl(f):	1.51719	1.5233	-0.00610777	0
    Cl(r):	-178.444	-178.43	-0.0144747	0
    CmPitch:	89.9807	89.9765	0.00418347	0
    CmRoll:	88.4635	88.4532	0.0102912	0
    CmYaw:	26.343	25.8314	0.511576	0
    Cs:	-9.56811e-19	-9.87512e-19	3.07013e-20	0
    Cs(f):	26.343	25.8314	0.511576	0
    Cs(r):	-26.343	-25.8314	-0.511576	0

    writing force and moment coefficient files.

Time = 3

smoothSolver:  Solving for omega, Initial residual = 0.0092248, Final residual = 0.000820461, No Iterations 2
smoothSolver:  Solving for Ux, Initial residual = 0.00396938, Final residual = 0.000342762, No Iterations 2
smoothSolver:  Solving for k, Initial residual = 0.000221356, Final residual = 1.04881e-05, No Iterations 2
bounding k, min: -0.00045258 max: 331.678 average: 1.00655
smoothSolver:  Solving for Uy, Initial residual = 0.00899377, Final residual = 0.000745713, No Iterations 2
ExecutionTime = 3.84 s  ClockTime = 4 s

forceCoeffs forceCoeffs1 write:
    Coefficient	Total	Pressure	Viscous	Internal
    Cd:	52.686	51.6628	1.02315	0
    Cd(f):	114.807	114.285	0.521867	0
    Cd(r):	-62.1205	-62.6218	0.501285	0
    Cl:	-176.927	-176.906	-0.0205825	0
    Cl(f):	1.51719	1.5233	-0.00610777	0
    Cl(r):	-178.444	-178.43	-0.0144747	0
    CmPitch:	89.9807	89.9765	0.00418347	0
    CmRoll:	88.4635	88.4532	0.0102912	0
    CmYaw:	26.343	25.8314	0.511576	0
    Cs:	-9.56811e-19	-9.87512e-19	3.07013e-20	0
    Cs(f):	26.343	25.8314	0.511576	0
    Cs(r):	-26.343	-25.8314	-0.511576	0

    writing force and moment coefficient files.

Time = 3

GAMG:  Solving for p, Initial residual = 0.202501, Final residual = 0.00832471, No Iterations 4
smoothSolver:  Solving for Ux, Initial residual = 0.00396938, Final residual = 0.000342762, No Iterations 2
smoothSolver:  Solving for Uy, Initial residual = 0.00899377, Final residual = 0.000745713, No Iterations 2
GAMG:  Solving for p, Initial residual = 0.202501, Final residual = 0.00832471, No Iterations 4
GAMG:  Solving for p, Initial residual = 0.00864023, Final residual = 0.000368577, No Iterations 17
GAMG:  Solving for p, Initial residual = 0.00864023, Final residual = 0.000368577, No Iterations 17
GAMG:  Solving for p, Initial residual = 0.000505527, Final residual = 2.41598e-05, No Iterations 16
GAMG:  Solving for p, Initial residual = 0.000505527, Final residual = 2.41598e-05, No Iterations 16
GAMG:  Solving for p, Initial residual = 4.67799e-05, Final residual = 2.26918e-06, No Iterations 16
time step continuity errors : sum local = 0.000128327, global = 8.20893e-06, cumulative = 2.35579e-05
smoothSolver:  Solving for omega, Initial residual = 0.00916769, Final residual = 0.000815518, No Iterations 2
smoothSolver:  Solving for k, Initial residual = 0.000220642, Final residual = 1.02856e-05, No Iterations 2
bounding k, min: -0.0267097 max: 338.017 average: 1.0182
ExecutionTime = 4.8 s  ClockTime = 5 s

forceCoeffs forceCoeffs1 write:
    Coefficient	Total	Pressure	Viscous	Internal
    Cd:	53.0253	51.9971	1.02823	0
    Cd(f):	115.958	115.433	0.524437	0
    Cd(r):	-62.9324	-63.4362	0.503796	0
    Cl:	-178.89	-178.869	-0.0206405	0
    Cl(f):	1.37587	1.38197	-0.0060986	0
    Cl(r):	-180.266	-180.251	-0.0145419	0
    CmPitch:	90.8209	90.8167	0.00422166	0
    CmRoll:	89.445	89.4347	0.0103203	0
    CmYaw:	26.5127	25.9985	0.514116	0
    Cs:	-9.24485e-19	-9.48904e-19	2.44198e-20	0
    Cs(f):	26.5127	25.9985	0.514116	0
    Cs(r):	-26.5127	-25.9985	-0.514116	0

    writing force and moment coefficient files.

Time = 4

GAMG:  Solving for p, Initial residual = 4.67799e-05, Final residual = 2.26918e-06, No Iterations 16
time step continuity errors : sum local = 0.000128327, global = 8.20893e-06, cumulative = 2.35579e-05
smoothSolver:  Solving for omega, Initial residual = 0.00916769, Final residual = 0.000815518, No Iterations 2
smoothSolver:  Solving for Ux, Initial residual = 0.00395801, Final residual = 0.00034156, No Iterations 2
smoothSolver:  Solving for Uy, Initial residual = 0.00897834, Final residual = 0.000741295, No Iterations 2
smoothSolver:  Solving for k, Initial residual = 0.000220642, Final residual = 1.02856e-05, No Iterations 2
bounding k, min: -0.0267097 max: 338.017 average: 1.0182
ExecutionTime = 4.96 s  ClockTime = 5 s

forceCoeffs forceCoeffs1 write:
    Coefficient	Total	Pressure	Viscous	Internal
    Cd:	53.0253	51.9971	1.02823	0
    Cd(f):	115.958	115.433	0.524437	0
    Cd(r):	-62.9324	-63.4362	0.503796	0
    Cl:	-178.89	-178.869	-0.0206405	0
    Cl(f):	1.37587	1.38197	-0.0060986	0
    Cl(r):	-180.266	-180.251	-0.0145419	0
    CmPitch:	90.8209	90.8167	0.00422166	0
    CmRoll:	89.445	89.4347	0.0103203	0
    CmYaw:	26.5127	25.9985	0.514116	0
    Cs:	-9.24485e-19	-9.48904e-19	2.44198e-20	0
    Cs(f):	26.5127	25.9985	0.514116	0
    Cs(r):	-26.5127	-25.9985	-0.514116	0

    writing force and moment coefficient files.

Time = 4

GAMG:  Solving for p, Initial residual = 0.218313, Final residual = 0.00860969, No Iterations 4
smoothSolver:  Solving for Ux, Initial residual = 0.00395801, Final residual = 0.00034156, No Iterations 2
smoothSolver:  Solving for Uy, Initial residual = 0.00897834, Final residual = 0.000741295, No Iterations 2
GAMG:  Solving for p, Initial residual = 0.218313, Final residual = 0.00860969, No Iterations 4
GAMG:  Solving for p, Initial residual = 0.00902072, Final residual = 0.00037043, No Iterations 15
GAMG:  Solving for p, Initial residual = 0.00902072, Final residual = 0.00037043, No Iterations 15
GAMG:  Solving for p, Initial residual = 0.000499833, Final residual = 2.06875e-05, No Iterations 18
GAMG:  Solving for p, Initial residual = 0.000499833, Final residual = 2.06875e-05, No Iterations 18
GAMG:  Solving for p, Initial residual = 4.54319e-05, Final residual = 2.25749e-06, No Iterations 18
time step continuity errors : sum local = 0.000130316, global = 8.07191e-06, cumulative = 3.16298e-05
smoothSolver:  Solving for omega, Initial residual = 0.00912898, Final residual = 0.000808639, No Iterations 2
smoothSolver:  Solving for k, Initial residual = 0.000219786, Final residual = 1.0299e-05, No Iterations 2
bounding k, min: -0.00667231 max: 344.308 average: 1.02991
ExecutionTime = 6.08 s  ClockTime = 6 s

forceCoeffs forceCoeffs1 write:
    Coefficient	Total	Pressure	Viscous	Internal
    Cd:	54.1021	53.0687	1.03339	0
    Cd(f):	116.341	115.814	0.527053	0
    Cd(r):	-62.2392	-62.7455	0.506338	0
    Cl:	-178.58	-178.56	-0.0207157	0
    Cl(f):	1.29669	1.30278	-0.00609524	0
    Cl(r):	-179.877	-179.862	-0.0146205	0
    CmPitch:	90.5869	90.5826	0.00426262	0
    CmRoll:	89.2902	89.2798	0.0103579	0
    CmYaw:	27.051	26.5343	0.516695	0
    Cs:	-8.78043e-19	-9.06539e-19	2.84956e-20	0
    Cs(f):	27.051	26.5343	0.516695	0
    Cs(r):	-27.051	-26.5343	-0.516695	0

    writing force and moment coefficient files.

Time = 5

GAMG:  Solving for p, Initial residual = 4.54319e-05, Final residual = 2.25749e-06, No Iterations 18
time step continuity errors : sum local = 0.000130316, global = 8.07191e-06, cumulative = 3.16298e-05
smoothSolver:  Solving for omega, Initial residual = 0.00912898, Final residual = 0.000808639, No Iterations 2
smoothSolver:  Solving for k, Initial residual = 0.000219786, Final residual = 1.0299e-05, No Iterations 2
bounding k, min: -0.00667231 max: 344.308 average: 1.02991
ExecutionTime = 6.23 s  ClockTime = 6 s

forceCoeffs forceCoeffs1 write:
    Coefficient	Total	Pressure	Viscous	Internal
    Cd:	54.1021	53.0687	1.03339	0
    Cd(f):	116.341	115.814	0.527053	0
    Cd(r):	-62.2392	-62.7455	0.506338	0
    Cl:	-178.58	-178.56	-0.0207157	0
    Cl(f):	1.29669	1.30278	-0.00609524	0
    Cl(r):	-179.877	-179.862	-0.0146205	0
    CmPitch:	90.5869	90.5826	0.00426262	0
    CmRoll:	89.2902	89.2798	0.0103579	0
    CmYaw:	27.051	26.5343	0.516695	0
    Cs:	-8.78043e-19	-9.06539e-19	2.84956e-20	0
    Cs(f):	27.051	26.5343	0.516695	0
    Cs(r):	-27.051	-26.5343	-0.516695	0

    writing force and moment coefficient files.

Time = 5

smoothSolver:  Solving for Ux, Initial residual = 0.00395835, Final residual = 0.000340697, No Iterations 2
smoothSolver:  Solving for Uy, Initial residual = 0.00892888, Final residual = 0.000739737, No Iterations 2
smoothSolver:  Solving for Ux, Initial residual = 0.00395835, Final residual = 0.000340697, No Iterations 2
smoothSolver:  Solving for Uy, Initial residual = 0.00892888, Final residual = 0.000739737, No Iterations 2
GAMG:  Solving for p, Initial residual = 0.229108, Final residual = 0.00939808, No Iterations 4
GAMG:  Solving for p, Initial residual = 0.229108, Final residual = 0.00939808, No Iterations 4
GAMG:  Solving for p, Initial residual = 0.0096673, Final residual = 0.000406589, No Iterations 15
GAMG:  Solving for p, Initial residual = 0.0096673, Final residual = 0.000406589, No Iterations 15
GAMG:  Solving for p, Initial residual = 0.000531217, Final residual = 2.30307e-05, No Iterations 20
GAMG:  Solving for p, Initial residual = 0.000531217, Final residual = 2.30307e-05, No Iterations 20
GAMG:  Solving for p, Initial residual = 5.26549e-05, Final residual = 2.21205e-06, No Iterations 18
time step continuity errors : sum local = 0.000127664, global = 7.97575e-06, cumulative = 3.96056e-05
GAMG:  Solving for p, Initial residual = 5.26549e-05, Final residual = 2.21205e-06, No Iterations 18
time step continuity errors : sum local = 0.000127664, global = 7.97575e-06, cumulative = 3.96056e-05
smoothSolver:  Solving for omega, Initial residual = 0.00898164, Final residual = 0.000792112, No Iterations 2
smoothSolver:  Solving for k, Initial residual = 0.000218735, Final residual = 1.00971e-05, No Iterations 2
bounding k, min: -0.00364757 max: 350.552 average: 1.04172
ExecutionTime = 7.51 s  ClockTime = 8 s

smoothSolver:  Solving for omega, Initial residual = 0.00898164, Final residual = 0.000792112, No Iterations 2
forceCoeffs forceCoeffs1 write:
    Coefficient	Total	Pressure	Viscous	Internal
    Cd:	55.5087	54.47	1.03869	0
    Cd(f):	115.462	114.932	0.529757	0
    Cd(r):	-59.9528	-60.4618	0.508929	0
    Cl:	-175.414	-175.394	-0.0208278	0
    Cl(f):	1.26812	1.27422	-0.0061036	0
    Cl(r):	-176.683	-176.668	-0.0147242	0
    CmPitch:	88.9753	88.971	0.00431029	0
    CmRoll:	87.7072	87.6968	0.0104139	0
    CmYaw:	27.7544	27.235	0.519343	0
    Cs:	-8.50692e-19	-8.78683e-19	2.79912e-20	0
    Cs(f):	27.7544	27.235	0.519343	0
    Cs(r):	-27.7544	-27.235	-0.519343	0

    writing force and moment coefficient files.

Time = 6

smoothSolver:  Solving for k, Initial residual = 0.000218735, Final residual = 1.00971e-05, No Iterations 2
bounding k, min: -0.00364757 max: 350.552 average: 1.04172
ExecutionTime = 7.63 s  ClockTime = 8 s

forceCoeffs forceCoeffs1 write:
    Coefficient	Total	Pressure	Viscous	Internal
    Cd:	55.5087	54.47	1.03869	0
    Cd(f):	115.462	114.932	0.529757	0
    Cd(r):	-59.9528	-60.4618	0.508929	0
    Cl:	-175.414	-175.394	-0.0208278	0
    Cl(f):	1.26812	1.27422	-0.0061036	0
    Cl(r):	-176.683	-176.668	-0.0147242	0
    CmPitch:	88.9753	88.971	0.00431029	0
    CmRoll:	87.7072	87.6968	0.0104139	0
    CmYaw:	27.7544	27.235	0.519343	0
    Cs:	-8.50692e-19	-8.78683e-19	2.79912e-20	0
    Cs(f):	27.7544	27.235	0.519343	0
    Cs(r):	-27.7544	-27.235	-0.519343	0

    writing force and moment coefficient files.

Time = 6

smoothSolver:  Solving for Ux, Initial residual = 0.00395433, Final residual = 0.000340316, No Iterations 2
smoothSolver:  Solving for Uy, Initial residual = 0.00888537, Final residual = 0.000735278, No Iterations 2
smoothSolver:  Solving for Ux, Initial residual = 0.00395433, Final residual = 0.000340316, No Iterations 2
smoothSolver:  Solving for Uy, Initial residual = 0.00888537, Final residual = 0.000735278, No Iterations 2
GAMG:  Solving for p, Initial residual = 0.216257, Final residual = 0.00941293, No Iterations 4
GAMG:  Solving for p, Initial residual = 0.216257, Final residual = 0.00941293, No Iterations 4
GAMG:  Solving for p, Initial residual = 0.00970324, Final residual = 0.000413507, No Iterations 15
GAMG:  Solving for p, Initial residual = 0.00970324, Final residual = 0.000413507, No Iterations 15
GAMG:  Solving for p, Initial residual = 0.000533608, Final residual = 2.41601e-05, No Iterations 24
GAMG:  Solving for p, Initial residual = 0.000533608, Final residual = 2.41601e-05, No Iterations 24
GAMG:  Solving for p, Initial residual = 5.47911e-05, Final residual = 2.43687e-06, No Iterations 18
time step continuity errors : sum local = 0.000139288, global = 8.27911e-06, cumulative = 4.78847e-05
GAMG:  Solving for p, Initial residual = 5.47911e-05, Final residual = 2.43687e-06, No Iterations 18
time step continuity errors : sum local = 0.000139288, global = 8.27911e-06, cumulative = 4.78847e-05
smoothSolver:  Solving for omega, Initial residual = 0.00901158, Final residual = 0.000794313, No Iterations 2
smoothSolver:  Solving for k, Initial residual = 0.000218239, Final residual = 1.03165e-05, No Iterations 2
bounding k, min: -0.00952641 max: 356.736 average: 1.05354
ExecutionTime = 8.85 s  ClockTime = 9 s

smoothSolver:  Solving for omega, Initial residual = 0.00901158, Final residual = 0.000794313, No Iterations 2
forceCoeffs forceCoeffs1 write:
    Coefficient	Total	Pressure	Viscous	Internal
    Cd:	56.6372	55.5931	1.04405	0
    Cd(f):	113.929	113.397	0.532513	0
    Cd(r):	-57.2922	-57.8037	0.511533	0
    Cl:	-171.222	-171.201	-0.0209802	0
    Cl(f):	1.31936	1.32548	-0.00612603	0
    Cl(r):	-172.541	-172.526	-0.0148542	0
    CmPitch:	86.9301	86.9258	0.00436407	0
    CmRoll:	85.6108	85.6003	0.0104901	0
    CmYaw:	28.3186	27.7966	0.522023	0
    Cs:	-8.40853e-19	-8.66669e-19	2.58167e-20	0
    Cs(f):	28.3186	27.7966	0.522023	0
    Cs(r):	-28.3186	-27.7966	-0.522023	0

    writing force and moment coefficient files.

Time = 7

smoothSolver:  Solving for k, Initial residual = 0.000218239, Final residual = 1.03165e-05, No Iterations 2
bounding k, min: -0.00952641 max: 356.736 average: 1.05354
ExecutionTime = 8.97 s  ClockTime = 9 s

forceCoeffs forceCoeffs1 write:
    Coefficient	Total	Pressure	Viscous	Internal
    Cd:	56.6372	55.5931	1.04405	0
    Cd(f):	113.929	113.397	0.532513	0
    Cd(r):	-57.2922	-57.8037	0.511533	0
    Cl:	-171.222	-171.201	-0.0209802	0
    Cl(f):	1.31936	1.32548	-0.00612603	0
    Cl(r):	-172.541	-172.526	-0.0148542	0
    CmPitch:	86.9301	86.9258	0.00436407	0
    CmRoll:	85.6108	85.6003	0.0104901	0
    CmYaw:	28.3186	27.7966	0.522023	0
    Cs:	-8.40853e-19	-8.66669e-19	2.58167e-20	0
    Cs(f):	28.3186	27.7966	0.522023	0
    Cs(r):	-28.3186	-27.7966	-0.522023	0

    writing force and moment coefficient files.

Time = 7

smoothSolver:  Solving for Ux, Initial residual = 0.00395807, Final residual = 0.000339698, No Iterations 2
smoothSolver:  Solving for Uy, Initial residual = 0.00884281, Final residual = 0.000734712, No Iterations 2
GAMG:  Solving for p, Initial residual = 0.206511, Final residual = 0.00930281, No Iterations 4
smoothSolver:  Solving for Ux, Initial residual = 0.00395807, Final residual = 0.000339698, No Iterations 2
smoothSolver:  Solving for Uy, Initial residual = 0.00884281, Final residual = 0.000734712, No Iterations 2
GAMG:  Solving for p, Initial residual = 0.206511, Final residual = 0.00930281, No Iterations 4
GAMG:  Solving for p, Initial residual = 0.0096836, Final residual = 0.000409597, No Iterations 15
GAMG:  Solving for p, Initial residual = 0.0096836, Final residual = 0.000409597, No Iterations 15
GAMG:  Solving for p, Initial residual = 0.000510459, Final residual = 2.32048e-05, No Iterations 26
GAMG:  Solving for p, Initial residual = 0.000510459, Final residual = 2.32048e-05, No Iterations 26
GAMG:  Solving for p, Initial residual = 5.02559e-05, Final residual = 2.09199e-06, No Iterations 20
time step continuity errors : sum local = 0.000118171, global = 7.02008e-06, cumulative = 5.49048e-05
smoothSolver:  Solving for omega, Initial residual = 0.00892516, Final residual = 0.000781693, No Iterations 2
GAMG:  Solving for p, Initial residual = 5.02559e-05, Final residual = 2.09199e-06, No Iterations 20
time step continuity errors : sum local = 0.000118171, global = 7.02008e-06, cumulative = 5.49048e-05
smoothSolver:  Solving for k, Initial residual = 0.000216969, Final residual = 9.97112e-06, No Iterations 2
bounding k, min: -0.0115767 max: 362.856 average: 1.0654
ExecutionTime = 10.16 s  ClockTime = 10 s

forceCoeffs forceCoeffs1 write:
    Coefficient	Total	Pressure	Viscous	Internal
    Cd:	56.9973	55.9479	1.04942	0
    Cd(f):	112.279	111.744	0.535293	0
    Cd(r):	-55.2815	-55.7957	0.51413	0
    Cl:	-167.56	-167.539	-0.021163	0
    Cl(f):	1.43685	1.443	-0.00615759	0
    Cl(r):	-168.997	-168.982	-0.0150054	0
    CmPitch:	85.2171	85.2126	0.00442389	0
    CmRoll:	83.7802	83.7696	0.0105815	0
    CmYaw:	28.4987	27.974	0.524712	0
    Cs:	-8.39548e-19	-8.63303e-19	2.37553e-20	0
    Cs(f):	28.4987	27.974	0.524712	0
    Cs(r):	-28.4987	-27.974	-0.524712	0

    writing force and moment coefficient files.

Time = 8

smoothSolver:  Solving for omega, Initial residual = 0.00892516, Final residual = 0.000781693, No Iterations 2
smoothSolver:  Solving for k, Initial residual = 0.000216969, Final residual = 9.97112e-06, No Iterations 2
bounding k, min: -0.0115767 max: 362.856 average: 1.0654
ExecutionTime = 10.31 s  ClockTime = 10 s

forceCoeffs forceCoeffs1 write:
    Coefficient	Total	Pressure	Viscous	Internal
    Cd:	56.9973	55.9479	1.04942	0
    Cd(f):	112.279	111.744	0.535293	0
    Cd(r):	-55.2815	-55.7957	0.51413	0
    Cl:	-167.56	-167.539	-0.021163	0
    Cl(f):	1.43685	1.443	-0.00615759	0
    Cl(r):	-168.997	-168.982	-0.0150054	0
    CmPitch:	85.2171	85.2126	0.00442389	0
    CmRoll:	83.7802	83.7696	0.0105815	0
    CmYaw:	28.4987	27.974	0.524712	0
    Cs:	-8.39548e-19	-8.63303e-19	2.37553e-20	0
    Cs(f):	28.4987	27.974	0.524712	0
    Cs(r):	-28.4987	-27.974	-0.524712	0

    writing force and moment coefficient files.

Time = 8

smoothSolver:  Solving for Ux, Initial residual = 0.00393404, Final residual = 0.000340224, No Iterations 2
smoothSolver:  Solving for Uy, Initial residual = 0.00879396, Final residual = 0.000728487, No Iterations 2
GAMG:  Solving for p, Initial residual = 0.203561, Final residual = 0.00863125, No Iterations 4
smoothSolver:  Solving for Ux, Initial residual = 0.00393404, Final residual = 0.000340224, No Iterations 2
smoothSolver:  Solving for Uy, Initial residual = 0.00879396, Final residual = 0.000728487, No Iterations 2
GAMG:  Solving for p, Initial residual = 0.203561, Final residual = 0.00863125, No Iterations 4
GAMG:  Solving for p, Initial residual = 0.00905693, Final residual = 0.000397516, No Iterations 13
GAMG:  Solving for p, Initial residual = 0.00905693, Final residual = 0.000397516, No Iterations 13
GAMG:  Solving for p, Initial residual = 0.000481588, Final residual = 2.08214e-05, No Iterations 35
GAMG:  Solving for p, Initial residual = 0.000481588, Final residual = 2.08214e-05, No Iterations 35
GAMG:  Solving for p, Initial residual = 5.061e-05, Final residual = 1.85234e-06, No Iterations 18
time step continuity errors : sum local = 0.000101906, global = 6.91594e-06, cumulative = 6.18207e-05
smoothSolver:  Solving for omega, Initial residual = 0.00887001, Final residual = 0.00077178, No Iterations 2
GAMG:  Solving for p, Initial residual = 5.061e-05, Final residual = 1.85234e-06, No Iterations 18
time step continuity errors : sum local = 0.000101906, global = 6.91594e-06, cumulative = 6.18207e-05
smoothSolver:  Solving for k, Initial residual = 0.000216614, Final residual = 1.00767e-05, No Iterations 2
bounding k, min: -0.027904 max: 368.912 average: 1.07728
ExecutionTime = 11.46 s  ClockTime = 12 s

forceCoeffs forceCoeffs1 write:
    Coefficient	Total	Pressure	Viscous	Internal
    Cd:	56.7576	55.7028	1.05477	0
    Cd(f):	110.543	110.005	0.538068	0
    Cd(r):	-53.7853	-54.302	0.516699	0
    Cl:	-164.328	-164.307	-0.0213682	0
    Cl(f):	1.60506	1.61126	-0.00619453	0
    Cl(r):	-165.933	-165.918	-0.0151737	0
    CmPitch:	83.7691	83.7647	0.00448958	0
    CmRoll:	82.1641	82.1534	0.0106841	0
    CmYaw:	28.3788	27.8514	0.527384	0
    Cs:	-8.4815e-19	-8.7537e-19	2.722e-20	0
    Cs(f):	28.3788	27.8514	0.527384	0
    Cs(r):	-28.3788	-27.8514	-0.527384	0

    writing force and moment coefficient files.

Time = 9

smoothSolver:  Solving for omega, Initial residual = 0.00887001, Final residual = 0.00077178, No Iterations 2
smoothSolver:  Solving for k, Initial residual = 0.000216614, Final residual = 1.00767e-05, No Iterations 2
bounding k, min: -0.027904 max: 368.912 average: 1.07728
ExecutionTime = 11.59 s  ClockTime = 12 s

forceCoeffs forceCoeffs1 write:
    Coefficient	Total	Pressure	Viscous	Internal
    Cd:	56.7576	55.7028	1.05477	0
    Cd(f):	110.543	110.005	0.538068	0
    Cd(r):	-53.7853	-54.302	0.516699	0
    Cl:	-164.328	-164.307	-0.0213682	0
    Cl(f):	1.60506	1.61126	-0.00619453	0
    Cl(r):	-165.933	-165.918	-0.0151737	0
    CmPitch:	83.7691	83.7647	0.00448958	0
    CmRoll:	82.1641	82.1534	0.0106841	0
    CmYaw:	28.3788	27.8514	0.527384	0
    Cs:	-8.4815e-19	-8.7537e-19	2.722e-20	0
    Cs(f):	28.3788	27.8514	0.527384	0
    Cs(r):	-28.3788	-27.8514	-0.527384	0

    writing force and moment coefficient files.

Time = 9

smoothSolver:  Solving for Ux, Initial residual = 0.0039197, Final residual = 0.000338295, No Iterations 2
smoothSolver:  Solving for Uy, Initial residual = 0.00874775, Final residual = 0.000728069, No Iterations 2
smoothSolver:  Solving for Ux, Initial residual = 0.0039197, Final residual = 0.000338295, No Iterations 2
smoothSolver:  Solving for Uy, Initial residual = 0.00874775, Final residual = 0.000728069, No Iterations 2
GAMG:  Solving for p, Initial residual = 0.206756, Final residual = 0.00889812, No Iterations 4
GAMG:  Solving for p, Initial residual = 0.206756, Final residual = 0.00889812, No Iterations 4
GAMG:  Solving for p, Initial residual = 0.00914713, Final residual = 0.000438097, No Iterations 13
GAMG:  Solving for p, Initial residual = 0.00914713, Final residual = 0.000438097, No Iterations 13
GAMG:  Solving for p, Initial residual = 0.00052419, Final residual = 2.12938e-05, No Iterations 29
GAMG:  Solving for p, Initial residual = 0.00052419, Final residual = 2.12938e-05, No Iterations 29
GAMG:  Solving for p, Initial residual = 5.60275e-05, Final residual = 2.38862e-06, No Iterations 16
time step continuity errors : sum local = 0.000133353, global = 8.02687e-06, cumulative = 6.98476e-05
GAMG:  Solving for p, Initial residual = 5.60275e-05, Final residual = 2.38862e-06, No Iterations 16
smoothSolver:  Solving for omega, Initial residual = 0.00880258, Final residual = 0.000762236, No Iterations 2
time step continuity errors : sum local = 0.000133353, global = 8.02687e-06, cumulative = 6.98476e-05
smoothSolver:  Solving for k, Initial residual = 0.000215149, Final residual = 9.8368e-06, No Iterations 2
bounding k, min: -0.00150716 max: 374.896 average: 1.08926
ExecutionTime = 12.75 s  ClockTime = 13 s

smoothSolver:  Solving for omega, Initial residual = 0.00880258, Final residual = 0.000762236, No Iterations 2
forceCoeffs forceCoeffs1 write:
    Coefficient	Total	Pressure	Viscous	Internal
    Cd:	55.9204	54.8603	1.06004	0
    Cd(f):	109.249	108.708	0.540814	0
    Cd(r):	-53.3283	-53.8475	0.519224	0
    Cl:	-162.577	-162.555	-0.0215896	0
    Cl(f):	1.79124	1.79748	-0.00623978	0
    Cl(r):	-164.368	-164.353	-0.0153498	0
    CmPitch:	83.0797	83.0751	0.00455503	0
    CmRoll:	81.2884	81.2777	0.0107948	0
    CmYaw:	27.9602	27.4302	0.530019	0
    Cs:	-8.64191e-19	-8.89624e-19	2.54322e-20	0
    Cs(f):	27.9602	27.4302	0.530019	0
    Cs(r):	-27.9602	-27.4302	-0.530019	0

    writing force and moment coefficient files.

Time = 10

smoothSolver:  Solving for k, Initial residual = 0.000215149, Final residual = 9.8368e-06, No Iterations 2
bounding k, min: -0.00150716 max: 374.896 average: 1.08926
ExecutionTime = 12.88 s  ClockTime = 13 s

forceCoeffs forceCoeffs1 write:
    Coefficient	Total	Pressure	Viscous	Internal
    Cd:	55.9204	54.8603	1.06004	0
    Cd(f):	109.249	108.708	0.540814	0
    Cd(r):	-53.3283	-53.8475	0.519224	0
    Cl:	-162.577	-162.555	-0.0215896	0
    Cl(f):	1.79124	1.79748	-0.00623978	0
    Cl(r):	-164.368	-164.353	-0.0153498	0
    CmPitch:	83.0797	83.0751	0.00455503	0
    CmRoll:	81.2884	81.2777	0.0107948	0
    CmYaw:	27.9602	27.4302	0.530019	0
    Cs:	-8.64191e-19	-8.89624e-19	2.54322e-20	0
    Cs(f):	27.9602	27.4302	0.530019	0
    Cs(r):	-27.9602	-27.4302	-0.530019	0

    writing force and moment coefficient files.

Time = 10

smoothSolver:  Solving for Ux, Initial residual = 0.00389914, Final residual = 0.000336917, No Iterations 2
smoothSolver:  Solving for Uy, Initial residual = 0.00869983, Final residual = 0.000724058, No Iterations 2
smoothSolver:  Solving for Ux, Initial residual = 0.00389914, Final residual = 0.000336917, No Iterations 2
smoothSolver:  Solving for Uy, Initial residual = 0.00869983, Final residual = 0.000724058, No Iterations 2
GAMG:  Solving for p, Initial residual = 0.210991, Final residual = 0.00953142, No Iterations 4
GAMG:  Solving for p, Initial residual = 0.210991, Final residual = 0.00953142, No Iterations 4
GAMG:  Solving for p, Initial residual = 0.00941531, Final residual = 0.000438749, No Iterations 14
GAMG:  Solving for p, Initial residual = 0.00941531, Final residual = 0.000438749, No Iterations 14
GAMG:  Solving for p, Initial residual = 0.000528486, Final residual = 2.53881e-05, No Iterations 35
GAMG:  Solving for p, Initial residual = 0.000528486, Final residual = 2.53881e-05, No Iterations 35
GAMG:  Solving for p, Initial residual = 6.49692e-05, Final residual = 2.3275e-06, No Iterations 18
time step continuity errors : sum local = 0.000132668, global = 7.93414e-06, cumulative = 7.77817e-05
GAMG:  Solving for p, Initial residual = 6.49692e-05, Final residual = 2.3275e-06, No Iterations 18
time step continuity errors : sum local = 0.000132668, global = 7.93414e-06, cumulative = 7.77817e-05
smoothSolver:  Solving for omega, Initial residual = 0.00873582, Final residual = 0.000757566, No Iterations 2
smoothSolver:  Solving for k, Initial residual = 0.000214908, Final residual = 1.00365e-05, No Iterations 2
bounding k, min: -0.00164217 max: 380.812 average: 1.10129
ExecutionTime = 14.14 s  ClockTime = 14 s

forceCoeffs forceCoeffs1 write:
    Coefficient	Total	Pressure	Viscous	Internal
    Cd:	54.7662	53.701	1.06521	0
    Cd(f):	108.474	107.931	0.54351	0
    Cd(r):	-53.708	-54.2297	0.521697	0
    Cl:	-162.182	-162.16	-0.0218123	0
    Cl(f):	1.92192	1.92821	-0.00628642	0
    Cl(r):	-164.104	-164.089	-0.0155259	0
    CmPitch:	83.0131	83.0084	0.00461972	0
    CmRoll:	81.0911	81.0802	0.0109061	0
    CmYaw:	27.3831	26.8505	0.532604	0
    Cs:	-8.75587e-19	-8.9993e-19	2.43421e-20	0
    Cs(f):	27.3831	26.8505	0.532604	0
    Cs(r):	-27.3831	-26.8505	-0.532604	0

    writing force and moment coefficient files.

Time = 11

smoothSolver:  Solving for omega, Initial residual = 0.00873582, Final residual = 0.000757566, No Iterations 2
smoothSolver:  Solving for k, Initial residual = 0.000214908, Final residual = 1.00365e-05, No Iterations 2
bounding k, min: -0.00164217 max: 380.812 average: 1.10129
ExecutionTime = 14.28 s  ClockTime = 14 s

forceCoeffs forceCoeffs1 write:
    Coefficient	Total	Pressure	Viscous	Internal
    Cd:	54.7662	53.701	1.06521	0
    Cd(f):	108.474	107.931	0.54351	0
    Cd(r):	-53.708	-54.2297	0.521697	0
    Cl:	-162.182	-162.16	-0.0218123	0
    Cl(f):	1.92192	1.92821	-0.00628642	0
    Cl(r):	-164.104	-164.089	-0.0155259	0
    CmPitch:	83.0131	83.0084	0.00461972	0
    CmRoll:	81.0911	81.0802	0.0109061	0
    CmYaw:	27.3831	26.8505	0.532604	0
    Cs:	-8.75587e-19	-8.9993e-19	2.43421e-20	0
    Cs(f):	27.3831	26.8505	0.532604	0
    Cs(r):	-27.3831	-26.8505	-0.532604	0

    writing force and moment coefficient files.

Time = 11

smoothSolver:  Solving for Ux, Initial residual = 0.00388659, Final residual = 0.000335008, No Iterations 2
smoothSolver:  Solving for Uy, Initial residual = 0.00867822, Final residual = 0.000721355, No Iterations 2
smoothSolver:  Solving for Ux, Initial residual = 0.00388659, Final residual = 0.000335008, No Iterations 2
smoothSolver:  Solving for Uy, Initial residual = 0.00867822, Final residual = 0.000721355, No Iterations 2
GAMG:  Solving for p, Initial residual = 0.212043, Final residual = 0.00974258, No Iterations 4
GAMG:  Solving for p, Initial residual = 0.212043, Final residual = 0.00974258, No Iterations 4
GAMG:  Solving for p, Initial residual = 0.00926593, Final residual = 0.000435182, No Iterations 14
GAMG:  Solving for p, Initial residual = 0.00926593, Final residual = 0.000435182, No Iterations 14
GAMG:  Solving for p, Initial residual = 0.000511083, Final residual = 2.52095e-05, No Iterations 33
GAMG:  Solving for p, Initial residual = 0.000511083, Final residual = 2.52095e-05, No Iterations 33
GAMG:  Solving for p, Initial residual = 5.92521e-05, Final residual = 2.58754e-06, No Iterations 16
time step continuity errors : sum local = 0.000149788, global = 8.39535e-06, cumulative = 8.61771e-05
smoothSolver:  Solving for omega, Initial residual = 0.00866192, Final residual = 0.000753277, No Iterations 2
GAMG:  Solving for p, Initial residual = 5.92521e-05, Final residual = 2.58754e-06, No Iterations 16
time step continuity errors : sum local = 0.000149788, global = 8.39535e-06, cumulative = 8.61771e-05
smoothSolver:  Solving for k, Initial residual = 0.000213435, Final residual = 9.72459e-06, No Iterations 2
bounding k, min: -0.025472 max: 386.652 average: 1.11337
ExecutionTime = 15.45 s  ClockTime = 16 s

forceCoeffs forceCoeffs1 write:
    Coefficient	Total	Pressure	Viscous	Internal
    Cd:	54.247	53.1766	1.07032	0
    Cd(f):	109.587	109.041	0.546181	0
    Cd(r):	-55.3405	-55.8646	0.524139	0
    Cl:	-164.928	-164.906	-0.0220418	0
    Cl(f):	2.06415	2.07049	-0.00634552	0
    Cl(r):	-166.992	-166.976	-0.0156963	0
    CmPitch:	84.5281	84.5234	0.00467538	0
    CmRoll:	82.464	82.453	0.0110209	0
    CmYaw:	27.1235	26.5883	0.53516	0
    Cs:	-8.83221e-19	-9.11538e-19	2.83169e-20	0
    Cs(f):	27.1235	26.5883	0.53516	0
    Cs(r):	-27.1235	-26.5883	-0.53516	0

    writing force and moment coefficient files.

Time = 12

smoothSolver:  Solving for omega, Initial residual = 0.00866192, Final residual = 0.000753277, No Iterations 2
smoothSolver:  Solving for k, Initial residual = 0.000213435, Final residual = 9.72459e-06, No Iterations 2
bounding k, min: -0.025472 max: 386.652 average: 1.11337
ExecutionTime = 15.6 s  ClockTime = 16 s

forceCoeffs forceCoeffs1 write:
    Coefficient	Total	Pressure	Viscous	Internal
    Cd:	54.247	53.1766	1.07032	0
    Cd(f):	109.587	109.041	0.546181	0
    Cd(r):	-55.3405	-55.8646	0.524139	0
    Cl:	-164.928	-164.906	-0.0220418	0
    Cl(f):	2.06415	2.07049	-0.00634552	0
    Cl(r):	-166.992	-166.976	-0.0156963	0
    CmPitch:	84.5281	84.5234	0.00467538	0
    CmRoll:	82.464	82.453	0.0110209	0
    CmYaw:	27.1235	26.5883	0.53516	0
    Cs:	-8.83221e-19	-9.11538e-19	2.83169e-20	0
    Cs(f):	27.1235	26.5883	0.53516	0
    Cs(r):	-27.1235	-26.5883	-0.53516	0

    writing force and moment coefficient files.

Time = 12

smoothSolver:  Solving for Ux, Initial residual = 0.00387508, Final residual = 0.000333525, No Iterations 2
smoothSolver:  Solving for Uy, Initial residual = 0.00865699, Final residual = 0.000718553, No Iterations 2
smoothSolver:  Solving for Ux, Initial residual = 0.00387508, Final residual = 0.000333525, No Iterations 2
smoothSolver:  Solving for Uy, Initial residual = 0.00865699, Final residual = 0.000718553, No Iterations 2
GAMG:  Solving for p, Initial residual = 0.210338, Final residual = 0.00944152, No Iterations 4
GAMG:  Solving for p, Initial residual = 0.210338, Final residual = 0.00944152, No Iterations 4
GAMG:  Solving for p, Initial residual = 0.00889554, Final residual = 0.000441766, No Iterations 14
GAMG:  Solving for p, Initial residual = 0.00889554, Final residual = 0.000441766, No Iterations 14
GAMG:  Solving for p, Initial residual = 0.000520131, Final residual = 2.22918e-05, No Iterations 29
GAMG:  Solving for p, Initial residual = 0.000520131, Final residual = 2.22918e-05, No Iterations 29
GAMG:  Solving for p, Initial residual = 5.30254e-05, Final residual = 2.36757e-06, No Iterations 16
time step continuity errors : sum local = 0.000132707, global = 8.77262e-06, cumulative = 9.49497e-05
smoothSolver:  Solving for omega, Initial residual = 0.00862826, Final residual = 0.000754103, No Iterations 2
GAMG:  Solving for p, Initial residual = 5.30254e-05, Final residual = 2.36757e-06, No Iterations 16
time step continuity errors : sum local = 0.000132707, global = 8.77262e-06, cumulative = 9.49497e-05
smoothSolver:  Solving for k, Initial residual = 0.00021367, Final residual = 9.8574e-06, No Iterations 2
bounding k, min: -0.00125919 max: 392.42 average: 1.12551
ExecutionTime = 16.69 s  ClockTime = 17 s

forceCoeffs forceCoeffs1 write:
    Coefficient	Total	Pressure	Viscous	Internal
    Cd:	54.5682	53.4927	1.07549	0
    Cd(f):	112.419	111.87	0.548885	0
    Cd(r):	-57.8507	-58.3773	0.526602	0
    Cl:	-170.27	-170.247	-0.0222829	0
    Cl(f):	2.16788	2.1743	-0.0064167	0
    Cl(r):	-172.438	-172.422	-0.0158662	0
    CmPitch:	87.3027	87.298	0.00472476	0
    CmRoll:	85.1348	85.1237	0.0111415	0
    CmYaw:	27.2841	26.7463	0.537744	0
    Cs:	-8.95663e-19	-9.17607e-19	2.19435e-20	0
    Cs(f):	27.2841	26.7463	0.537744	0
    Cs(r):	-27.2841	-26.7463	-0.537744	0

    writing force and moment coefficient files.

Time = 13

smoothSolver:  Solving for omega, Initial residual = 0.00862826, Final residual = 0.000754103, No Iterations 2
smoothSolver:  Solving for k, Initial residual = 0.00021367, Final residual = 9.8574e-06, No Iterations 2
bounding k, min: -0.00125919 max: 392.42 average: 1.12551
ExecutionTime = 16.85 s  ClockTime = 17 s

smoothSolver:  Solving for Ux, Initial residual = 0.00386727, Final residual = 0.000331489, No Iterations 2
forceCoeffs forceCoeffs1 write:
    Coefficient	Total	Pressure	Viscous	Internal
    Cd:	54.5682	53.4927	1.07549	0
    Cd(f):	112.419	111.87	0.548885	0
    Cd(r):	-57.8507	-58.3773	0.526602	0
    Cl:	-170.27	-170.247	-0.0222829	0
    Cl(f):	2.16788	2.1743	-0.0064167	0
    Cl(r):	-172.438	-172.422	-0.0158662	0
    CmPitch:	87.3027	87.298	0.00472476	0
    CmRoll:	85.1348	85.1237	0.0111415	0
    CmYaw:	27.2841	26.7463	0.537744	0
    Cs:	-8.95663e-19	-9.17607e-19	2.19435e-20	0
    Cs(f):	27.2841	26.7463	0.537744	0
    Cs(r):	-27.2841	-26.7463	-0.537744	0

    writing force and moment coefficient files.

Time = 13

smoothSolver:  Solving for Uy, Initial residual = 0.00861864, Final residual = 0.000716648, No Iterations 2
GAMG:  Solving for p, Initial residual = 0.210614, Final residual = 0.00930773, No Iterations 4
smoothSolver:  Solving for Ux, Initial residual = 0.00386727, Final residual = 0.000331489, No Iterations 2
smoothSolver:  Solving for Uy, Initial residual = 0.00861864, Final residual = 0.000716648, No Iterations 2
GAMG:  Solving for p, Initial residual = 0.210614, Final residual = 0.00930773, No Iterations 4
GAMG:  Solving for p, Initial residual = 0.00881816, Final residual = 0.000423191, No Iterations 14
GAMG:  Solving for p, Initial residual = 0.00881816, Final residual = 0.000423191, No Iterations 14
GAMG:  Solving for p, Initial residual = 0.000511539, Final residual = 2.05227e-05, No Iterations 27
GAMG:  Solving for p, Initial residual = 0.000511539, Final residual = 2.05227e-05, No Iterations 27
GAMG:  Solving for p, Initial residual = 5.3277e-05, Final residual = 2.39421e-06, No Iterations 16
time step continuity errors : sum local = 0.000129713, global = 8.61941e-06, cumulative = 0.000103569
smoothSolver:  Solving for omega, Initial residual = 0.00856694, Final residual = 0.000740432, No Iterations 2
GAMG:  Solving for p, Initial residual = 5.3277e-05, Final residual = 2.39421e-06, No Iterations 16
smoothSolver:  Solving for k, Initial residual = 0.000212129, Final residual = 9.65983e-06, No Iterations 2
bounding k, min: -0.0037394 max: 398.127 average: 1.13765
time step continuity errors : sum local = 0.000129713, global = 8.61941e-06, cumulative = 0.000103569
ExecutionTime = 17.86 s  ClockTime = 18 s

forceCoeffs forceCoeffs1 write:
    Coefficient	Total	Pressure	Viscous	Internal
    Cd:	55.3551	54.2744	1.08075	0
    Cd(f):	115.915	115.363	0.551643	0
    Cd(r):	-60.56	-61.0891	0.529109	0
    Cl:	-176.475	-176.453	-0.0225336	0
    Cl(f):	2.15393	2.16043	-0.00650064	0
    Cl(r):	-178.629	-178.613	-0.0160329	0
    CmPitch:	90.3915	90.3867	0.00476614	0
    CmRoll:	88.2375	88.2263	0.0112668	0
    CmYaw:	27.6776	27.1372	0.540376	0
    Cs:	-8.91424e-19	-9.20827e-19	2.94031e-20	0
    Cs(f):	27.6776	27.1372	0.540376	0
    Cs(r):	-27.6776	-27.1372	-0.540376	0

    writing force and moment coefficient files.

Time = 14

smoothSolver:  Solving for omega, Initial residual = 0.00856694, Final residual = 0.000740432, No Iterations 2
smoothSolver:  Solving for k, Initial residual = 0.000212129, Final residual = 9.65983e-06, No Iterations 2
bounding k, min: -0.0037394 max: 398.127 average: 1.13765
ExecutionTime = 18.05 s  ClockTime = 18 s

forceCoeffs forceCoeffs1 write:
    Coefficient	Total	Pressure	Viscous	Internal
smoothSolver:  Solving for Ux, Initial residual = 0.00386093, Final residual = 0.000330796, No Iterations 2
    Cd:	55.3551	54.2744	1.08075	0
    Cd(f):	115.915	115.363	0.551643	0
    Cd(r):	-60.56	-61.0891	0.529109	0
    Cl:	-176.475	-176.453	-0.0225336	0
    Cl(f):	2.15393	2.16043	-0.00650064	0
    Cl(r):	-178.629	-178.613	-0.0160329	0
    CmPitch:	90.3915	90.3867	0.00476614	0
    CmRoll:	88.2375	88.2263	0.0112668	0
    CmYaw:	27.6776	27.1372	0.540376	0
    Cs:	-8.91424e-19	-9.20827e-19	2.94031e-20	0
    Cs(f):	27.6776	27.1372	0.540376	0
    Cs(r):	-27.6776	-27.1372	-0.540376	0

    writing force and moment coefficient files.

Time = 14

smoothSolver:  Solving for Uy, Initial residual = 0.00858994, Final residual = 0.000713141, No Iterations 2
GAMG:  Solving for p, Initial residual = 0.208901, Final residual = 0.00926005, No Iterations 4
smoothSolver:  Solving for Ux, Initial residual = 0.00386093, Final residual = 0.000330796, No Iterations 2
smoothSolver:  Solving for Uy, Initial residual = 0.00858994, Final residual = 0.000713141, No Iterations 2
GAMG:  Solving for p, Initial residual = 0.208901, Final residual = 0.00926005, No Iterations 4
GAMG:  Solving for p, Initial residual = 0.0088065, Final residual = 0.000413334, No Iterations 14
GAMG:  Solving for p, Initial residual = 0.0088065, Final residual = 0.000413334, No Iterations 14
GAMG:  Solving for p, Initial residual = 0.000514123, Final residual = 2.28795e-05, No Iterations 27
GAMG:  Solving for p, Initial residual = 0.000514123, Final residual = 2.28795e-05, No Iterations 27
GAMG:  Solving for p, Initial residual = 5.54914e-05, Final residual = 2.45658e-06, No Iterations 16
time step continuity errors : sum local = 0.000130416, global = 8.71648e-06, cumulative = 0.000112286
smoothSolver:  Solving for omega, Initial residual = 0.00848016, Final residual = 0.000725285, No Iterations 2
GAMG:  Solving for p, Initial residual = 5.54914e-05, Final residual = 2.45658e-06, No Iterations 16
time step continuity errors : sum local = 0.000130416, global = 8.71648e-06, cumulative = 0.000112286
smoothSolver:  Solving for k, Initial residual = 0.000212335, Final residual = 9.80243e-06, No Iterations 2
bounding k, min: -0.045308 max: 403.8 average: 1.14985
ExecutionTime = 19.04 s  ClockTime = 19 s

forceCoeffs forceCoeffs1 write:
    Coefficient	Total	Pressure	Viscous	Internal
    Cd:	56.1596	55.0734	1.08612	0
    Cd(f):	118.938	118.384	0.554451	0
    Cd(r):	-62.7787	-63.3103	0.531668	0
    Cl:	-181.717	-181.694	-0.0227832	0
    Cl(f):	1.99624	2.00283	-0.00658802	0
    Cl(r):	-183.713	-183.697	-0.0161951	0
    CmPitch:	92.8547	92.8499	0.00480356	0
    CmRoll:	90.8584	90.847	0.0113916	0
    CmYaw:	28.0798	27.5367	0.543059	0
    Cs:	-8.94201e-19	-9.18051e-19	2.38499e-20	0
    Cs(f):	28.0798	27.5367	0.543059	0
    Cs(r):	-28.0798	-27.5367	-0.543059	0

    writing force and moment coefficient files.

Time = 15

smoothSolver:  Solving for omega, Initial residual = 0.00848016, Final residual = 0.000725285, No Iterations 2
smoothSolver:  Solving for Ux, Initial residual = 0.00384625, Final residual = 0.000331092, No Iterations 2
smoothSolver:  Solving for k, Initial residual = 0.000212335, Final residual = 9.80243e-06, No Iterations 2
bounding k, min: -0.045308 max: 403.8 average: 1.14985
smoothSolver:  Solving for Uy, Initial residual = 0.00854306, Final residual = 0.000711714, No Iterations 2
ExecutionTime = 19.24 s  ClockTime = 19 s

forceCoeffs forceCoeffs1 write:
    Coefficient	Total	Pressure	Viscous	Internal
    Cd:	56.1596	55.0734	1.08612	0
    Cd(f):	118.938	118.384	0.554451	0
    Cd(r):	-62.7787	-63.3103	0.531668	0
    Cl:	-181.717	-181.694	-0.0227832	0
    Cl(f):	1.99624	2.00283	-0.00658802	0
    Cl(r):	-183.713	-183.697	-0.0161951	0
    CmPitch:	92.8547	92.8499	0.00480356	0
    CmRoll:	90.8584	90.847	0.0113916	0
    CmYaw:	28.0798	27.5367	0.543059	0
    Cs:	-8.94201e-19	-9.18051e-19	2.38499e-20	0
    Cs(f):	28.0798	27.5367	0.543059	0
    Cs(r):	-28.0798	-27.5367	-0.543059	0

    writing force and moment coefficient files.

Time = 15

GAMG:  Solving for p, Initial residual = 0.211156, Final residual = 0.00921262, No Iterations 4
smoothSolver:  Solving for Ux, Initial residual = 0.00384625, Final residual = 0.000331092, No Iterations 2
smoothSolver:  Solving for Uy, Initial residual = 0.00854306, Final residual = 0.000711714, No Iterations 2
GAMG:  Solving for p, Initial residual = 0.211156, Final residual = 0.00921262, No Iterations 4
GAMG:  Solving for p, Initial residual = 0.00881718, Final residual = 0.000400998, No Iterations 14
GAMG:  Solving for p, Initial residual = 0.00881718, Final residual = 0.000400998, No Iterations 14
GAMG:  Solving for p, Initial residual = 0.00050904, Final residual = 1.91928e-05, No Iterations 27
GAMG:  Solving for p, Initial residual = 0.00050904, Final residual = 1.91928e-05, No Iterations 27
GAMG:  Solving for p, Initial residual = 4.86596e-05, Final residual = 2.07756e-06, No Iterations 18
time step continuity errors : sum local = 0.000110391, global = 7.50827e-06, cumulative = 0.000119794
smoothSolver:  Solving for omega, Initial residual = 0.00844112, Final residual = 0.000711896, No Iterations 2
smoothSolver:  Solving for k, Initial residual = 0.000211102, Final residual = 1.00084e-05, No Iterations 2
bounding k, min: -0.00732184 max: 409.461 average: 1.16215
ExecutionTime = 20.23 s  ClockTime = 20 s

GAMG:  Solving for p, Initial residual = 4.86596e-05, Final residual = 2.07756e-06, No Iterations 18
time step continuity errors : sum local = 0.000110391, global = 7.50827e-06, cumulative = 0.000119794
forceCoeffs forceCoeffs1 write:
    Coefficient	Total	Pressure	Viscous	Internal
    Cd:	56.6441	55.5526	1.09155	0
    Cd(f):	120.751	120.193	0.557284	0
    Cd(r):	-64.1066	-64.6408	0.534263	0
    Cl:	-184.857	-184.834	-0.0230207	0
    Cl(f):	1.68524	1.69191	-0.00667106	0
    Cl(r):	-186.543	-186.526	-0.0163496	0
    CmPitch:	94.1139	94.109	0.00483928	0
    CmRoll:	92.4286	92.4171	0.0115103	0
    CmYaw:	28.3221	27.7763	0.545773	0
    Cs:	-8.82351e-19	-9.09595e-19	2.72437e-20	0
    Cs(f):	28.3221	27.7763	0.545773	0
    Cs(r):	-28.3221	-27.7763	-0.545773	0

    writing force and moment coefficient files.

Time = 16

smoothSolver:  Solving for omega, Initial residual = 0.00844112, Final residual = 0.000711896, No Iterations 2
smoothSolver:  Solving for k, Initial residual = 0.000211102, Final residual = 1.00084e-05, No Iterations 2
bounding k, min: -0.00732184 max: 409.461 average: 1.16215
ExecutionTime = 20.44 s  ClockTime = 20 s

smoothSolver:  Solving for Ux, Initial residual = 0.00383429, Final residual = 0.000331151, No Iterations 2
smoothSolver:  Solving for Uy, Initial residual = 0.00853007, Final residual = 0.000709699, No Iterations 2
forceCoeffs forceCoeffs1 write:
    Coefficient	Total	Pressure	Viscous	Internal
    Cd:	56.6441	55.5526	1.09155	0
    Cd(f):	120.751	120.193	0.557284	0
    Cd(r):	-64.1066	-64.6408	0.534263	0
    Cl:	-184.857	-184.834	-0.0230207	0
    Cl(f):	1.68524	1.69191	-0.00667106	0
    Cl(r):	-186.543	-186.526	-0.0163496	0
    CmPitch:	94.1139	94.109	0.00483928	0
    CmRoll:	92.4286	92.4171	0.0115103	0
    CmYaw:	28.3221	27.7763	0.545773	0
    Cs:	-8.82351e-19	-9.09595e-19	2.72437e-20	0
    Cs(f):	28.3221	27.7763	0.545773	0
    Cs(r):	-28.3221	-27.7763	-0.545773	0

    writing force and moment coefficient files.

Time = 16

GAMG:  Solving for p, Initial residual = 0.214279, Final residual = 0.00901586, No Iterations 4
smoothSolver:  Solving for Ux, Initial residual = 0.00383429, Final residual = 0.000331151, No Iterations 2
smoothSolver:  Solving for Uy, Initial residual = 0.00853007, Final residual = 0.000709699, No Iterations 2
GAMG:  Solving for p, Initial residual = 0.214279, Final residual = 0.00901586, No Iterations 4
GAMG:  Solving for p, Initial residual = 0.00867108, Final residual = 0.000427002, No Iterations 13
GAMG:  Solving for p, Initial residual = 0.00867108, Final residual = 0.000427002, No Iterations 13
GAMG:  Solving for p, Initial residual = 0.00053125, Final residual = 2.6298e-05, No Iterations 24
GAMG:  Solving for p, Initial residual = 0.00053125, Final residual = 2.6298e-05, No Iterations 24
GAMG:  Solving for p, Initial residual = 6.06777e-05, Final residual = 2.99365e-06, No Iterations 14
time step continuity errors : sum local = 0.00015763, global = 1.03058e-05, cumulative = 0.0001301
smoothSolver:  Solving for omega, Initial residual = 0.00842757, Final residual = 0.000696544, No Iterations 2
GAMG:  Solving for p, Initial residual = 6.06777e-05, Final residual = 2.99365e-06, No Iterations 14
time step continuity errors : sum local = 0.00015763, global = 1.03058e-05, cumulative = 0.0001301
smoothSolver:  Solving for k, Initial residual = 0.000210061, Final residual = 9.6921e-06, No Iterations 2
bounding k, min: -0.0194577 max: 415.138 average: 1.17449
ExecutionTime = 21.35 s  ClockTime = 21 s

forceCoeffs forceCoeffs1 write:
    Coefficient	Total	Pressure	Viscous	Internal
    Cd:	56.441	55.3441	1.09696	0
    Cd(f):	120.624	120.064	0.560099	0
    Cd(r):	-64.1831	-64.72	0.536865	0
    Cl:	-184.807	-184.784	-0.023234	0
    Cl(f):	1.27156	1.27829	-0.0067347	0
    Cl(r):	-186.079	-186.062	-0.0164993	0
    CmPitch:	93.6752	93.6703	0.00488228	0
    CmRoll:	92.4036	92.392	0.011617	0
    CmYaw:	28.2205	27.672	0.548482	0
    Cs:	-8.78886e-19	-9.03251e-19	2.43658e-20	0
    Cs(f):	28.2205	27.672	0.548482	0
    Cs(r):	-28.2205	-27.672	-0.548482	0

    writing force and moment coefficient files.

Time = 17

smoothSolver:  Solving for omega, Initial residual = 0.00842757, Final residual = 0.000696544, No Iterations 2
smoothSolver:  Solving for k, Initial residual = 0.000210061, Final residual = 9.6921e-06, No Iterations 2
bounding k, min: -0.0194577 max: 415.138 average: 1.17449
ExecutionTime = 21.51 s  ClockTime = 22 s

forceCoeffs forceCoeffs1 write:
    Coefficient	Total	Pressure	Viscous	Internal
    Cd:	56.441	55.3441	1.09696	0
    Cd(f):	120.624	120.064	0.560099	0
    Cd(r):	-64.1831	-64.72	0.536865	0
    Cl:	-184.807	-184.784	-0.023234	0
    Cl(f):	1.27156	1.27829	-0.0067347	0
    Cl(r):	-186.079	-186.062	-0.0164993	0
    CmPitch:	93.6752	93.6703	0.00488228	0
    CmRoll:	92.4036	92.392	0.011617	0
    CmYaw:	28.2205	27.672	0.548482	0
    Cs:	-8.78886e-19	-9.03251e-19	2.43658e-20	0
    Cs(f):	28.2205	27.672	0.548482	0
    Cs(r):	-28.2205	-27.672	-0.548482	0

    writing force and moment coefficient files.

Time = 17

smoothSolver:  Solving for Ux, Initial residual = 0.00381683, Final residual = 0.000329002, No Iterations 2
smoothSolver:  Solving for Uy, Initial residual = 0.00846924, Final residual = 0.000707225, No Iterations 2
smoothSolver:  Solving for Ux, Initial residual = 0.00381683, Final residual = 0.000329002, No Iterations 2
smoothSolver:  Solving for Uy, Initial residual = 0.00846924, Final residual = 0.000707225, No Iterations 2
GAMG:  Solving for p, Initial residual = 0.215629, Final residual = 0.00958033, No Iterations 4
GAMG:  Solving for p, Initial residual = 0.215629, Final residual = 0.00958033, No Iterations 4
GAMG:  Solving for p, Initial residual = 0.00920832, Final residual = 0.000456158, No Iterations 12
GAMG:  Solving for p, Initial residual = 0.00920832, Final residual = 0.000456158, No Iterations 12
GAMG:  Solving for p, Initial residual = 0.000569348, Final residual = 2.44439e-05, No Iterations 28
GAMG:  Solving for p, Initial residual = 0.000569348, Final residual = 2.44439e-05, No Iterations 28
GAMG:  Solving for p, Initial residual = 7.14167e-05, Final residual = 2.70393e-06, No Iterations 16
time step continuity errors : sum local = 0.000142348, global = 9.6958e-06, cumulative = 0.000139795
GAMG:  Solving for p, Initial residual = 7.14167e-05, Final residual = 2.70393e-06, No Iterations 16
time step continuity errors : sum local = 0.000142348, global = 9.6958e-06, cumulative = 0.000139795
smoothSolver:  Solving for omega, Initial residual = 0.00834868, Final residual = 0.000672711, No Iterations 2
smoothSolver:  Solving for k, Initial residual = 0.000209209, Final residual = 9.80885e-06, No Iterations 2
bounding k, min: -0.0140756 max: 420.849 average: 1.18684
smoothSolver:  Solving for omega, Initial residual = 0.00834868, Final residual = 0.000672711, No Iterations 2
ExecutionTime = 22.54 s  ClockTime = 23 s

forceCoeffs forceCoeffs1 write:
    Coefficient	Total	Pressure	Viscous	Internal
    Cd:	55.2952	54.193	1.10225	0
    Cd(f):	118.296	117.733	0.562831	0
    Cd(r):	-63.0006	-63.54	0.539415	0
    Cl:	-181.296	-181.273	-0.0234164	0
    Cl(f):	0.856383	0.863164	-0.00678049	0
    Cl(r):	-182.153	-182.136	-0.0166359	0
    CmPitch:	91.5046	91.4997	0.0049277	0
    CmRoll:	90.6482	90.6365	0.0117082	0
    CmYaw:	27.6476	27.0965	0.551123	0
    Cs:	-8.64939e-19	-8.92522e-19	2.75822e-20	0
    Cs(f):	27.6476	27.0965	0.551123	0
    Cs(r):	-27.6476	-27.0965	-0.551123	0

    writing force and moment coefficient files.

Time = 18

smoothSolver:  Solving for k, Initial residual = 0.000209209, Final residual = 9.80885e-06, No Iterations 2
bounding k, min: -0.0140756 max: 420.849 average: 1.18684
ExecutionTime = 22.66 s  ClockTime = 23 s

forceCoeffs forceCoeffs1 write:
    Coefficient	Total	Pressure	Viscous	Internal
    Cd:	55.2952	54.193	1.10225	0
    Cd(f):	118.296	117.733	0.562831	0
    Cd(r):	-63.0006	-63.54	0.539415	0
    Cl:	-181.296	-181.273	-0.0234164	0
    Cl(f):	0.856383	0.863164	-0.00678049	0
    Cl(r):	-182.153	-182.136	-0.0166359	0
    CmPitch:	91.5046	91.4997	0.0049277	0
    CmRoll:	90.6482	90.6365	0.0117082	0
    CmYaw:	27.6476	27.0965	0.551123	0
    Cs:	-8.64939e-19	-8.92522e-19	2.75822e-20	0
    Cs(f):	27.6476	27.0965	0.551123	0
    Cs(r):	-27.6476	-27.0965	-0.551123	0

    writing force and moment coefficient files.

Time = 18

smoothSolver:  Solving for Ux, Initial residual = 0.0038077, Final residual = 0.00032863, No Iterations 2
smoothSolver:  Solving for Uy, Initial residual = 0.00846189, Final residual = 0.000704603, No Iterations 2
smoothSolver:  Solving for Ux, Initial residual = 0.0038077, Final residual = 0.00032863, No Iterations 2
smoothSolver:  Solving for Uy, Initial residual = 0.00846189, Final residual = 0.000704603, No Iterations 2
GAMG:  Solving for p, Initial residual = 0.219794, Final residual = 0.00975744, No Iterations 4
GAMG:  Solving for p, Initial residual = 0.219794, Final residual = 0.00975744, No Iterations 4
GAMG:  Solving for p, Initial residual = 0.00958874, Final residual = 0.000417186, No Iterations 15
GAMG:  Solving for p, Initial residual = 0.00958874, Final residual = 0.000417186, No Iterations 15
GAMG:  Solving for p, Initial residual = 0.000579705, Final residual = 1.87081e-05, No Iterations 22
GAMG:  Solving for p, Initial residual = 0.000579705, Final residual = 1.87081e-05, No Iterations 22
GAMG:  Solving for p, Initial residual = 6.86212e-05, Final residual = 2.96917e-06, No Iterations 14
time step continuity errors : sum local = 0.000158441, global = 1.15317e-05, cumulative = 0.000151327
GAMG:  Solving for p, Initial residual = 6.86212e-05, Final residual = 2.96917e-06, No Iterations 14
time step continuity errors : sum local = 0.000158441, global = 1.15317e-05, cumulative = 0.000151327
smoothSolver:  Solving for omega, Initial residual = 0.00829007, Final residual = 0.000666327, No Iterations 2
smoothSolver:  Solving for omega, Initial residual = 0.00829007, Final residual = 0.000666327, No Iterations 2
smoothSolver:  Solving for k, Initial residual = 0.000208686, Final residual = 9.60575e-06, No Iterations 2
bounding k, min: -0.00511955 max: 426.593 average: 1.19925
ExecutionTime = 23.64 s  ClockTime = 24 s

forceCoeffs forceCoeffs1 write:
    Coefficient	Total	Pressure	Viscous	Internal
    Cd:	53.3786	52.2713	1.10728	0
    Cd(f):	114.706	114.14	0.565429	0
    Cd(r):	-61.3272	-61.8691	0.541856	0
    Cl:	-176.033	-176.009	-0.0235725	0
    Cl(f):	0.559907	0.566714	-0.00680673	0
    Cl(r):	-176.593	-176.576	-0.0167657	0
    CmPitch:	88.5764	88.5715	0.0049795	0
    CmRoll:	88.0165	88.0047	0.0117862	0
    CmYaw:	26.6893	26.1357	0.553642	0
    Cs:	-8.54467e-19	-8.74848e-19	2.03805e-20	0
    Cs(f):	26.6893	26.1357	0.553642	0
    Cs(r):	-26.6893	-26.1357	-0.553642	0

    writing force and moment coefficient files.

Time = 19

smoothSolver:  Solving for k, Initial residual = 0.000208686, Final residual = 9.60575e-06, No Iterations 2
bounding k, min: -0.00511955 max: 426.593 average: 1.19925
ExecutionTime = 23.76 s  ClockTime = 24 s

forceCoeffs forceCoeffs1 write:
    Coefficient	Total	Pressure	Viscous	Internal
    Cd:	53.3786	52.2713	1.10728	0
    Cd(f):	114.706	114.14	0.565429	0
    Cd(r):	-61.3272	-61.8691	0.541856	0
    Cl:	-176.033	-176.009	-0.0235725	0
    Cl(f):	0.559907	0.566714	-0.00680673	0
    Cl(r):	-176.593	-176.576	-0.0167657	0
    CmPitch:	88.5764	88.5715	0.0049795	0
    CmRoll:	88.0165	88.0047	0.0117862	0
    CmYaw:	26.6893	26.1357	0.553642	0
    Cs:	-8.54467e-19	-8.74848e-19	2.03805e-20	0
    Cs(f):	26.6893	26.1357	0.553642	0
    Cs(r):	-26.6893	-26.1357	-0.553642	0

    writing force and moment coefficient files.

Time = 19

smoothSolver:  Solving for Ux, Initial residual = 0.00379362, Final residual = 0.00032678, No Iterations 2
smoothSolver:  Solving for Uy, Initial residual = 0.00842834, Final residual = 0.000700269, No Iterations 2
smoothSolver:  Solving for Ux, Initial residual = 0.00379362, Final residual = 0.00032678, No Iterations 2
smoothSolver:  Solving for Uy, Initial residual = 0.00842834, Final residual = 0.000700269, No Iterations 2
GAMG:  Solving for p, Initial residual = 0.220239, Final residual = 0.00977029, No Iterations 4
GAMG:  Solving for p, Initial residual = 0.220239, Final residual = 0.00977029, No Iterations 4
GAMG:  Solving for p, Initial residual = 0.00961877, Final residual = 0.000417329, No Iterations 15
GAMG:  Solving for p, Initial residual = 0.00961877, Final residual = 0.000417329, No Iterations 15
GAMG:  Solving for p, Initial residual = 0.000563148, Final residual = 2.51021e-05, No Iterations 22
GAMG:  Solving for p, Initial residual = 0.000563148, Final residual = 2.51021e-05, No Iterations 22
GAMG:  Solving for p, Initial residual = 7.01525e-05, Final residual = 2.99861e-06, No Iterations 14
time step continuity errors : sum local = 0.00015875, global = 1.153e-05, cumulative = 0.000162857
GAMG:  Solving for p, Initial residual = 7.01525e-05, Final residual = 2.99861e-06, No Iterations 14
time step continuity errors : sum local = 0.00015875, global = 1.153e-05, cumulative = 0.000162857
smoothSolver:  Solving for omega, Initial residual = 0.00826614, Final residual = 0.00065794, No Iterations 2
smoothSolver:  Solving for omega, Initial residual = 0.00826614, Final residual = 0.00065794, No Iterations 2
smoothSolver:  Solving for k, Initial residual = 0.000207855, Final residual = 9.65557e-06, No Iterations 2
bounding k, min: -0.0549161 max: 432.345 average: 1.21169
ExecutionTime = 24.75 s  ClockTime = 25 s

forceCoeffs forceCoeffs1 write:
    Coefficient	Total	Pressure	Viscous	Internal
    Cd:	51.6181	50.506	1.11207	0
    Cd(f):	112.237	111.669	0.567897	0
    Cd(r):	-60.6191	-61.1632	0.544174	0
    Cl:	-172.856	-172.833	-0.0237227	0
    Cl(f):	0.54733	0.554157	-0.00682702	0
    Cl(r):	-173.404	-173.387	-0.0168957	0
    CmPitch:	86.9755	86.9704	0.00503432	0
    CmRoll:	86.4281	86.4163	0.0118613	0
    CmYaw:	25.8091	25.253	0.556035	0
    Cs:	-8.29209e-19	-8.58922e-19	2.97131e-20	0
    Cs(f):	25.8091	25.253	0.556035	0
    Cs(r):	-25.8091	-25.253	-0.556035	0

    writing force and moment coefficient files.

Time = 20

smoothSolver:  Solving for k, Initial residual = 0.000207855, Final residual = 9.65557e-06, No Iterations 2
bounding k, min: -0.0549161 max: 432.345 average: 1.21169
ExecutionTime = 24.86 s  ClockTime = 25 s

forceCoeffs forceCoeffs1 write:
    Coefficient	Total	Pressure	Viscous	Internal
    Cd:	51.6181	50.506	1.11207	0
    Cd(f):	112.237	111.669	0.567897	0
    Cd(r):	-60.6191	-61.1632	0.544174	0
    Cl:	-172.856	-172.833	-0.0237227	0
    Cl(f):	0.54733	0.554157	-0.00682702	0
    Cl(r):	-173.404	-173.387	-0.0168957	0
    CmPitch:	86.9755	86.9704	0.00503432	0
    CmRoll:	86.4281	86.4163	0.0118613	0
    CmYaw:	25.8091	25.253	0.556035	0
    Cs:	-8.29209e-19	-8.58922e-19	2.97131e-20	0
    Cs(f):	25.8091	25.253	0.556035	0
    Cs(r):	-25.8091	-25.253	-0.556035	0

    writing force and moment coefficient files.

Time = 20

smoothSolver:  Solving for Ux, Initial residual = 0.0037867, Final residual = 0.000325643, No Iterations 2
smoothSolver:  Solving for Uy, Initial residual = 0.00841549, Final residual = 0.000699989, No Iterations 2
smoothSolver:  Solving for Ux, Initial residual = 0.0037867, Final residual = 0.000325643, No Iterations 2
smoothSolver:  Solving for Uy, Initial residual = 0.00841549, Final residual = 0.000699989, No Iterations 2
GAMG:  Solving for p, Initial residual = 0.218389, Final residual = 0.00966408, No Iterations 4
GAMG:  Solving for p, Initial residual = 0.218389, Final residual = 0.00966408, No Iterations 4
GAMG:  Solving for p, Initial residual = 0.00991026, Final residual = 0.000453659, No Iterations 15
GAMG:  Solving for p, Initial residual = 0.00991026, Final residual = 0.000453659, No Iterations 15
GAMG:  Solving for p, Initial residual = 0.000611555, Final residual = 2.22298e-05, No Iterations 24
GAMG:  Solving for p, Initial residual = 0.000611555, Final residual = 2.22298e-05, No Iterations 24
GAMG:  Solving for p, Initial residual = 6.57081e-05, Final residual = 2.32528e-06, No Iterations 16
time step continuity errors : sum local = 0.0001246, global = 8.76227e-06, cumulative = 0.000171619
GAMG:  Solving for p, Initial residual = 6.57081e-05, Final residual = 2.32528e-06, No Iterations 16
time step continuity errors : sum local = 0.0001246, global = 8.76227e-06, cumulative = 0.000171619
smoothSolver:  Solving for omega, Initial residual = 0.00821464, Final residual = 0.000642167, No Iterations 2
smoothSolver:  Solving for omega, Initial residual = 0.00821464, Final residual = 0.000642167, No Iterations 2
smoothSolver:  Solving for k, Initial residual = 0.000207561, Final residual = 9.51454e-06, No Iterations 2
bounding k, min: -0.0472772 max: 438.11 average: 1.22422
ExecutionTime = 25.93 s  ClockTime = 26 s

smoothSolver:  Solving for k, Initial residual = 0.000207561, Final residual = 9.51454e-06, No Iterations 2
bounding k, min: -0.0472772 max: 438.11 average: 1.22422
ExecutionTime = 26.01 s  ClockTime = 26 s

forceCoeffs forceCoeffs1 write:
    Coefficient	Total	Pressure	Viscous	Internal
    Cd:	49.9542	48.8376	1.11662	0
    Cd(f):	111.249	110.678	0.570248	0
    Cd(r):	-61.2944	-61.8408	0.546373	0
    Cl:	-172.543	-172.519	-0.0238744	0
    Cl(f):	0.705777	0.712627	-0.00684975	0
    Cl(r):	-173.249	-173.232	-0.0170246	0
    CmPitch:	86.9773	86.9722	0.00508743	0
    CmRoll:	86.2715	86.2596	0.0119372	0
    CmYaw:	24.9771	24.4188	0.55831	0
    Cs:	-8.12391e-19	-8.37314e-19	2.49226e-20	0
    Cs(f):	24.9771	24.4188	0.55831	0
    Cs(r):	-24.9771	-24.4188	-0.55831	0

    writing force and moment coefficient files.

Time = 21

forceCoeffs forceCoeffs1 write:
    Coefficient	Total	Pressure	Viscous	Internal
    Cd:	49.9542	48.8376	1.11662	0
    Cd(f):	111.249	110.678	0.570248	0
    Cd(r):	-61.2944	-61.8408	0.546373	0
    Cl:	-172.543	-172.519	-0.0238744	0
    Cl(f):	0.705777	0.712627	-0.00684975	0
    Cl(r):	-173.249	-173.232	-0.0170246	0
    CmPitch:	86.9773	86.9722	0.00508743	0
    CmRoll:	86.2715	86.2596	0.0119372	0
    CmYaw:	24.9771	24.4188	0.55831	0
    Cs:	-8.12391e-19	-8.37314e-19	2.49226e-20	0
    Cs(f):	24.9771	24.4188	0.55831	0
    Cs(r):	-24.9771	-24.4188	-0.55831	0

    writing force and moment coefficient files.

Time = 21

smoothSolver:  Solving for Ux, Initial residual = 0.00376692, Final residual = 0.000324644, No Iterations 2
smoothSolver:  Solving for Ux, Initial residual = 0.00376692, Final residual = 0.000324644, No Iterations 2
smoothSolver:  Solving for Uy, Initial residual = 0.00837272, Final residual = 0.000697168, No Iterations 2
smoothSolver:  Solving for Uy, Initial residual = 0.00837272, Final residual = 0.000697168, No Iterations 2
GAMG:  Solving for p, Initial residual = 0.212169, Final residual = 0.0100128, No Iterations 4
GAMG:  Solving for p, Initial residual = 0.212169, Final residual = 0.0100128, No Iterations 4
GAMG:  Solving for p, Initial residual = 0.0102464, Final residual = 0.000479049, No Iterations 15
GAMG:  Solving for p, Initial residual = 0.0102464, Final residual = 0.000479049, No Iterations 15
GAMG:  Solving for p, Initial residual = 0.000632335, Final residual = 2.18532e-05, No Iterations 22
GAMG:  Solving for p, Initial residual = 0.000632335, Final residual = 2.18532e-05, No Iterations 22
GAMG:  Solving for p, Initial residual = 6.72302e-05, Final residual = 3.21624e-06, No Iterations 14
time step continuity errors : sum local = 0.000174688, global = 1.27792e-05, cumulative = 0.000184399
GAMG:  Solving for p, Initial residual = 6.72302e-05, Final residual = 3.21624e-06, No Iterations 14
time step continuity errors : sum local = 0.000174688, global = 1.27792e-05, cumulative = 0.000184399
smoothSolver:  Solving for omega, Initial residual = 0.00808929, Final residual = 0.000649552, No Iterations 2
smoothSolver:  Solving for omega, Initial residual = 0.00808929, Final residual = 0.000649552, No Iterations 2
smoothSolver:  Solving for k, Initial residual = 0.000206627, Final residual = 9.54645e-06, No Iterations 2
bounding k, min: -0.0096285 max: 443.914 average: 1.23682
smoothSolver:  Solving for k, Initial residual = 0.000206627, Final residual = 9.54645e-06, No Iterations 2
ExecutionTime = 27.03 s  ClockTime = 27 s

bounding k, min: -0.0096285 max: 443.914 average: 1.23682
ExecutionTime = 27.11 s  ClockTime = 27 s

forceCoeffs forceCoeffs1 write:
    Coefficient	Total	Pressure	Viscous	Internal
    Cd:	47.7096	46.5887	1.12089	0
    Cd(f):	110.753	110.18	0.572473	0
    Cd(r):	-63.043	-63.5914	0.548421	0
    Cl:	-173.796	-173.772	-0.0240522	0
    Cl(f):	0.788294	0.795185	-0.00689165	0
    Cl(r):	-174.584	-174.567	-0.0171605	0
    CmPitch:	87.6861	87.681	0.00513444	0
    CmRoll:	86.8978	86.8858	0.0120261	0
    CmYaw:	23.8548	23.2944	0.560447	0
    Cs:	-7.84454e-19	-8.0648e-19	2.20257e-20	0
    Cs(f):	23.8548	23.2944	0.560447	0
    Cs(r):	-23.8548	-23.2944	-0.560447	0

    writing force and moment coefficient files.

Time = 22

forceCoeffs forceCoeffs1 write:
    Coefficient	Total	Pressure	Viscous	Internal
    Cd:	47.7096	46.5887	1.12089	0
    Cd(f):	110.753	110.18	0.572473	0
    Cd(r):	-63.043	-63.5914	0.548421	0
    Cl:	-173.796	-173.772	-0.0240522	0
    Cl(f):	0.788294	0.795185	-0.00689165	0
    Cl(r):	-174.584	-174.567	-0.0171605	0
    CmPitch:	87.6861	87.681	0.00513444	0
    CmRoll:	86.8978	86.8858	0.0120261	0
    CmYaw:	23.8548	23.2944	0.560447	0
    Cs:	-7.84454e-19	-8.0648e-19	2.20257e-20	0
    Cs(f):	23.8548	23.2944	0.560447	0
    Cs(r):	-23.8548	-23.2944	-0.560447	0

    writing force and moment coefficient files.

Time = 22

smoothSolver:  Solving for Ux, Initial residual = 0.00375658, Final residual = 0.000323117, No Iterations 2
smoothSolver:  Solving for Ux, Initial residual = 0.00375658, Final residual = 0.000323117, No Iterations 2
smoothSolver:  Solving for Uy, Initial residual = 0.00834355, Final residual = 0.00069329, No Iterations 2
smoothSolver:  Solving for Uy, Initial residual = 0.00834355, Final residual = 0.00069329, No Iterations 2
GAMG:  Solving for p, Initial residual = 0.210966, Final residual = 0.0100361, No Iterations 4
GAMG:  Solving for p, Initial residual = 0.210966, Final residual = 0.0100361, No Iterations 4
GAMG:  Solving for p, Initial residual = 0.0105423, Final residual = 0.000474209, No Iterations 15
GAMG:  Solving for p, Initial residual = 0.0105423, Final residual = 0.000474209, No Iterations 15
GAMG:  Solving for p, Initial residual = 0.000608147, Final residual = 1.91747e-05, No Iterations 20
GAMG:  Solving for p, Initial residual = 0.000608147, Final residual = 1.91747e-05, No Iterations 20
GAMG:  Solving for p, Initial residual = 6.47902e-05, Final residual = 2.93799e-06, No Iterations 14
GAMG:  Solving for p, Initial residual = 6.47902e-05, Final residual = 2.93799e-06, No Iterations 14
time step continuity errors : sum local = 0.000164397, global = 1.22399e-05, cumulative = 0.000196639
time step continuity errors : sum local = 0.000164397, global = 1.22399e-05, cumulative = 0.000196639
smoothSolver:  Solving for omega, Initial residual = 0.00804891, Final residual = 0.00063283, No Iterations 2
smoothSolver:  Solving for omega, Initial residual = 0.00804891, Final residual = 0.00063283, No Iterations 2
smoothSolver:  Solving for k, Initial residual = 0.0002064, Final residual = 9.39377e-06, No Iterations 2
smoothSolver:  Solving for k, Initial residual = 0.0002064, Final residual = 9.39377e-06, No Iterations 2
bounding k, min: -0.000301508 max: 449.786 average: 1.24945
bounding k, min: -0.000301508 max: 449.786 average: 1.24945
ExecutionTime = 28.14 s  ClockTime = 28 s

ExecutionTime = 28.2 s  ClockTime = 28 s

forceCoeffs forceCoeffs1 write:
    Coefficient	Total	Pressure	Viscous	Internal
forceCoeffs forceCoeffs1 write:
    Coefficient	Total	Pressure	Viscous	Internal
    Cd:	44.9989	43.8741	1.12484	0
    Cd(f):	109.935	109.361	0.574539	0
    Cd(r):	-64.9365	-65.4868	0.550301	0
    Cl:	-174.872	-174.848	-0.0242384	0
    Cl(f):	0.68317	0.690115	-0.00694499	0
    Cl(r):	-175.555	-175.538	-0.0172934	0
    CmPitch:	88.1191	88.1139	0.0051742	0
    CmRoll:	87.4359	87.4238	0.0121192	0
    CmYaw:	22.4995	21.937	0.56242	0
    Cs:	-7.42988e-19	-7.67915e-19	2.49263e-20	0
    Cs(f):	22.4995	21.937	0.56242	0
    Cs(r):	-22.4995	-21.937	-0.56242	0

    writing force and moment coefficient files.

Time = 23

    Cd:	44.9989	43.8741	1.12484	0
    Cd(f):	109.935	109.361	0.574539	0
    Cd(r):	-64.9365	-65.4868	0.550301	0
    Cl:	-174.872	-174.848	-0.0242384	0
    Cl(f):	0.68317	0.690115	-0.00694499	0
    Cl(r):	-175.555	-175.538	-0.0172934	0
    CmPitch:	88.1191	88.1139	0.0051742	0
    CmRoll:	87.4359	87.4238	0.0121192	0
    CmYaw:	22.4995	21.937	0.56242	0
    Cs:	-7.42988e-19	-7.67915e-19	2.49263e-20	0
    Cs(f):	22.4995	21.937	0.56242	0
    Cs(r):	-22.4995	-21.937	-0.56242	0

    writing force and moment coefficient files.

Time = 23

smoothSolver:  Solving for Ux, Initial residual = 0.00374509, Final residual = 0.000322452, No Iterations 2
smoothSolver:  Solving for Ux, Initial residual = 0.00374509, Final residual = 0.000322452, No Iterations 2
smoothSolver:  Solving for Uy, Initial residual = 0.00831374, Final residual = 0.000689911, No Iterations 2
smoothSolver:  Solving for Uy, Initial residual = 0.00831374, Final residual = 0.000689911, No Iterations 2
GAMG:  Solving for p, Initial residual = 0.206996, Final residual = 0.00963228, No Iterations 4
GAMG:  Solving for p, Initial residual = 0.206996, Final residual = 0.00963228, No Iterations 4
GAMG:  Solving for p, Initial residual = 0.0103047, Final residual = 0.000506453, No Iterations 15
GAMG:  Solving for p, Initial residual = 0.0103047, Final residual = 0.000506453, No Iterations 15
GAMG:  Solving for p, Initial residual = 0.000608306, Final residual = 2.04648e-05, No Iterations 20
GAMG:  Solving for p, Initial residual = 0.000608306, Final residual = 2.04648e-05, No Iterations 20
GAMG:  Solving for p, Initial residual = 6.41352e-05, Final residual = 3.00454e-06, No Iterations 14
GAMG:  Solving for p, Initial residual = 6.41352e-05, Final residual = 3.00454e-06, No Iterations 14
time step continuity errors : sum local = 0.000176157, global = 1.30148e-05, cumulative = 0.000209653
time step continuity errors : sum local = 0.000176157, global = 1.30148e-05, cumulative = 0.000209653
smoothSolver:  Solving for omega, Initial residual = 0.00794453, Final residual = 0.00063857, No Iterations 2
smoothSolver:  Solving for omega, Initial residual = 0.00794453, Final residual = 0.00063857, No Iterations 2
smoothSolver:  Solving for k, Initial residual = 0.00020533, Final residual = 9.41426e-06, No Iterations 2
bounding k, min: -0.0224296 max: 455.751 average: 1.26213
ExecutionTime = 29.28 s  ClockTime = 29 s

smoothSolver:  Solving for k, Initial residual = 0.00020533, Final residual = 9.41426e-06, No Iterations 2
bounding k, min: -0.0224296 max: 455.751 average: 1.26213
forceCoeffs forceCoeffs1 write:
    Coefficient	Total	Pressure	Viscous	Internal
ExecutionTime = 29.22 s  ClockTime = 29 s

    Cd:	42.067	40.9386	1.12841	0
    Cd(f):	107.71	107.134	0.576404	0
    Cd(r):	-65.6434	-66.1954	0.552008	0
    Cl:	-173.354	-173.329	-0.0243966	0
    Cl(f):	0.351867	0.358863	-0.00699616	0
    Cl(r):	-173.706	-173.688	-0.0174004	0
[...]
ExecutionTime = 114.21 s  ClockTime = 114 s

forceCoeffs forceCoeffs1 write:
    Coefficient	Total	Pressure	Viscous	Internal
    Cd:	25.7444	24.4325	1.31192	0
    Cd(f):	78.0924	77.4235	0.66889	0
    Cd(r):	-52.348	-52.991	0.64303	0
    Cl:	-130.44	-130.414	-0.0258605	0
    Cl(f):	-14.5393	-14.5301	-0.00924913	0
    Cl(r):	-115.901	-115.884	-0.0166114	0
    CmPitch:	50.6809	50.6772	0.00368112	0
    CmRoll:	65.2202	65.2072	0.0129302	0
    CmYaw:	12.8722	12.2163	0.65596	0
    Cs:	-2.80322e-19	-2.90173e-19	9.85179e-21	0
    Cs(f):	12.8722	12.2163	0.65596	0
    Cs(r):	-12.8722	-12.2163	-0.65596	0

    writing force and moment coefficient files.

Time = 95

GAMG:  Solving for p, Initial residual = 2.4616e-05, Final residual = 1.10671e-06, No Iterations 16
time step continuity errors : sum local = 8.81647e-05, global = 7.16303e-06, cumulative = 0.00038338
smoothSolver:  Solving for omega, Initial residual = 0.0063416, Final residual = 0.000522416, No Iterations 2
smoothSolver:  Solving for Ux, Initial residual = 0.00325245, Final residual = 0.000272045, No Iterations 2
smoothSolver:  Solving for Uy, Initial residual = 0.00694993, Final residual = 0.000563297, No Iterations 2
smoothSolver:  Solving for k, Initial residual = 0.00109583, Final residual = 5.7521e-05, No Iterations 2
bounding k, min: -0.151108 max: 899.46 average: 2.37733
ExecutionTime = 114.63 s  ClockTime = 115 s

forceCoeffs forceCoeffs1 write:
    Coefficient	Total	Pressure	Viscous	Internal
    Cd:	27.3914	26.0772	1.31418	0
    Cd(f):	79.0198	78.3498	0.669993	0
    Cd(r):	-51.6284	-52.2726	0.644184	0
    Cl:	-130.648	-130.622	-0.0258088	0
    Cl(f):	-14.6736	-14.6644	-0.00927273	0
    Cl(r):	-115.975	-115.958	-0.016536	0
    CmPitch:	50.6504	50.6468	0.00363165	0
    CmRoll:	65.3241	65.3112	0.0129044	0
    CmYaw:	13.6957	13.0386	0.657089	0
    Cs:	-2.76812e-19	-2.87653e-19	1.08405e-20	0
    Cs(f):	13.6957	13.0386	0.657089	0
    Cs(r):	-13.6957	-13.0386	-0.657089	0

    writing force and moment coefficient files.

Time = 96

GAMG:  Solving for p, Initial residual = 0.0978985, Final residual = 0.0047767, No Iterations 4
smoothSolver:  Solving for Ux, Initial residual = 0.00325065, Final residual = 0.00027106, No Iterations 2
smoothSolver:  Solving for Uy, Initial residual = 0.00693383, Final residual = 0.000561163, No Iterations 2
GAMG:  Solving for p, Initial residual = 0.103983, Final residual = 0.00444387, No Iterations 4
GAMG:  Solving for p, Initial residual = 0.00477984, Final residual = 0.000216314, No Iterations 15
GAMG:  Solving for p, Initial residual = 0.00442989, Final residual = 0.000194443, No Iterations 13
GAMG:  Solving for p, Initial residual = 0.000257539, Final residual = 1.27796e-05, No Iterations 33
GAMG:  Solving for p, Initial residual = 0.000227862, Final residual = 1.10741e-05, No Iterations 29
GAMG:  Solving for p, Initial residual = 2.4616e-05, Final residual = 1.10671e-06, No Iterations 16
time step continuity errors : sum local = 8.81647e-05, global = 7.16303e-06, cumulative = 0.00038338
smoothSolver:  Solving for omega, Initial residual = 0.0063416, Final residual = 0.000522416, No Iterations 2
GAMG:  Solving for p, Initial residual = 2.22749e-05, Final residual = 7.92345e-07, No Iterations 18
smoothSolver:  Solving for k, Initial residual = 0.00109583, Final residual = 5.7521e-05, No Iterations 2
bounding k, min: -0.151108 max: 899.46 average: 2.37733
time step continuity errors : sum local = 6.39146e-05, global = -4.38135e-06, cumulative = 0.000378999
ExecutionTime = 115.54 s  ClockTime = 116 s

forceCoeffs forceCoeffs1 write:
    Coefficient	Total	Pressure	Viscous	Internal
    Cd:	27.3914	26.0772	1.31418	0
    Cd(f):	79.0198	78.3498	0.669993	0
    Cd(r):	-51.6284	-52.2726	0.644184	0
    Cl:	-130.648	-130.622	-0.0258088	0
    Cl(f):	-14.6736	-14.6644	-0.00927273	0
    Cl(r):	-115.975	-115.958	-0.016536	0
    CmPitch:	50.6504	50.6468	0.00363165	0
    CmRoll:	65.3241	65.3112	0.0129044	0
    CmYaw:	13.6957	13.0386	0.657089	0
    Cs:	-2.76812e-19	-2.87653e-19	1.08405e-20	0
    Cs(f):	13.6957	13.0386	0.657089	0
    Cs(r):	-13.6957	-13.0386	-0.657089	0

    writing force and moment coefficient files.

Time = 96

smoothSolver:  Solving for omega, Initial residual = 0.00633964, Final residual = 0.000524394, No Iterations 2
smoothSolver:  Solving for k, Initial residual = 0.00109929, Final residual = 6.0901e-05, No Iterations 2
bounding k, min: -0.0141486 max: 939.95 average: 2.39951
ExecutionTime = 115.89 s  ClockTime = 116 s

smoothSolver:  Solving for Ux, Initial residual = 0.00325065, Final residual = 0.00027106, No Iterations 2
forceCoeffs forceCoeffs1 write:
    Coefficient	Total	Pressure	Viscous	Internal
smoothSolver:  Solving for Uy, Initial residual = 0.00693383, Final residual = 0.000561163, No Iterations 2
    Cd:	28.2076	26.8911	1.31652	0
    Cd(f):	79.4324	78.7612	0.671147	0
    Cd(r):	-51.2248	-51.8702	0.645369	0
    Cl:	-130.657	-130.631	-0.0257779	0
    Cl(f):	-14.8571	-14.8478	-0.00929199	0
    Cl(r):	-115.8	-115.784	-0.0164859	0
    CmPitch:	50.4715	50.4679	0.00359695	0
    CmRoll:	65.3286	65.3157	0.0128889	0
    CmYaw:	14.1038	13.4455	0.658258	0
    Cs:	-2.72005e-19	-2.82027e-19	1.00229e-20	0
    Cs(f):	14.1038	13.4455	0.658258	0
    Cs(r):	-14.1038	-13.4455	-0.658258	0

    writing force and moment coefficient files.

Time = 97

GAMG:  Solving for p, Initial residual = 0.103983, Final residual = 0.00444387, No Iterations 4
smoothSolver:  Solving for Ux, Initial residual = 0.00325388, Final residual = 0.000271285, No Iterations 2
smoothSolver:  Solving for Uy, Initial residual = 0.00692058, Final residual = 0.000559413, No Iterations 2
GAMG:  Solving for p, Initial residual = 0.0990084, Final residual = 0.00417539, No Iterations 4
GAMG:  Solving for p, Initial residual = 0.00442989, Final residual = 0.000194443, No Iterations 13
GAMG:  Solving for p, Initial residual = 0.0041188, Final residual = 0.00018436, No Iterations 13
GAMG:  Solving for p, Initial residual = 0.000227862, Final residual = 1.10741e-05, No Iterations 29
GAMG:  Solving for p, Initial residual = 0.000217741, Final residual = 1.07999e-05, No Iterations 26
GAMG:  Solving for p, Initial residual = 2.22749e-05, Final residual = 7.92345e-07, No Iterations 18
time step continuity errors : sum local = 6.39146e-05, global = -4.38135e-06, cumulative = 0.000378999
GAMG:  Solving for p, Initial residual = 2.20611e-05, Final residual = 1.09482e-06, No Iterations 14
time step continuity errors : sum local = 9.38071e-05, global = -8.79023e-06, cumulative = 0.000370209
smoothSolver:  Solving for omega, Initial residual = 0.00633964, Final residual = 0.000524394, No Iterations 2
smoothSolver:  Solving for omega, Initial residual = 0.00630913, Final residual = 0.000519933, No Iterations 2
smoothSolver:  Solving for k, Initial residual = 0.00109929, Final residual = 6.0901e-05, No Iterations 2
bounding k, min: -0.0141486 max: 939.95 average: 2.39951
ExecutionTime = 116.81 s  ClockTime = 117 s

smoothSolver:  Solving for k, Initial residual = 0.0011123, Final residual = 6.4855e-05, No Iterations 2
bounding k, min: -0.0432734 max: 942.709 average: 2.42089
forceCoeffs forceCoeffs1 write:
    Coefficient	Total	Pressure	Viscous	Internal
    Cd:	28.2076	26.8911	1.31652	0
    Cd(f):	79.4324	78.7612	0.671147	0
    Cd(r):	-51.2248	-51.8702	0.645369	0
    Cl:	-130.657	-130.631	-0.0257779	0
    Cl(f):	-14.8571	-14.8478	-0.00929199	0
    Cl(r):	-115.8	-115.784	-0.0164859	0
    CmPitch:	50.4715	50.4679	0.00359695	0
    CmRoll:	65.3286	65.3157	0.0128889	0
    CmYaw:	14.1038	13.4455	0.658258	0
    Cs:	-2.72005e-19	-2.82027e-19	1.00229e-20	0
    Cs(f):	14.1038	13.4455	0.658258	0
    Cs(r):	-14.1038	-13.4455	-0.658258	0

    writing force and moment coefficient files.

Time = 97

ExecutionTime = 117.06 s  ClockTime = 117 s

forceCoeffs forceCoeffs1 write:
    Coefficient	Total	Pressure	Viscous	Internal
    Cd:	28.0399	26.7211	1.31883	0
    Cd(f):	79.1993	78.527	0.672302	0
    Cd(r):	-51.1594	-51.806	0.646528	0
    Cl:	-130.359	-130.333	-0.0257737	0
    Cl(f):	-15.1384	-15.1291	-0.00931098	0
    Cl(r):	-115.22	-115.204	-0.0164627	0
    CmPitch:	50.041	50.0374	0.00357586	0
    CmRoll:	65.1794	65.1665	0.0128868	0
    CmYaw:	14.0199	13.3605	0.659415	0
    Cs:	-2.57967e-19	-2.68814e-19	1.08469e-20	0
    Cs(f):	14.0199	13.3605	0.659415	0
    Cs(r):	-14.0199	-13.3605	-0.659415	0

    writing force and moment coefficient files.

Time = 98

smoothSolver:  Solving for Ux, Initial residual = 0.00325388, Final residual = 0.000271285, No Iterations 2
smoothSolver:  Solving for Uy, Initial residual = 0.00692058, Final residual = 0.000559413, No Iterations 2
smoothSolver:  Solving for Ux, Initial residual = 0.00325354, Final residual = 0.000271263, No Iterations 2
smoothSolver:  Solving for Uy, Initial residual = 0.00690507, Final residual = 0.000557869, No Iterations 2
GAMG:  Solving for p, Initial residual = 0.0990084, Final residual = 0.00417539, No Iterations 4
GAMG:  Solving for p, Initial residual = 0.0957216, Final residual = 0.00410019, No Iterations 4
GAMG:  Solving for p, Initial residual = 0.0041188, Final residual = 0.00018436, No Iterations 13
GAMG:  Solving for p, Initial residual = 0.00401803, Final residual = 0.000188161, No Iterations 14
GAMG:  Solving for p, Initial residual = 0.000217741, Final residual = 1.07999e-05, No Iterations 26
GAMG:  Solving for p, Initial residual = 0.000222896, Final residual = 9.91328e-06, No Iterations 30
GAMG:  Solving for p, Initial residual = 2.20611e-05, Final residual = 1.09482e-06, No Iterations 14
time step continuity errors : sum local = 9.38071e-05, global = -8.79023e-06, cumulative = 0.000370209
smoothSolver:  Solving for omega, Initial residual = 0.00630913, Final residual = 0.000519933, No Iterations 2
GAMG:  Solving for p, Initial residual = 2.19567e-05, Final residual = 7.78617e-07, No Iterations 16
time step continuity errors : sum local = 6.70258e-05, global = -6.67107e-06, cumulative = 0.000363537
smoothSolver:  Solving for k, Initial residual = 0.0011123, Final residual = 6.4855e-05, No Iterations 2
bounding k, min: -0.0432734 max: 942.709 average: 2.42089
ExecutionTime = 117.98 s  ClockTime = 118 s

forceCoeffs forceCoeffs1 write:
    Coefficient	Total	Pressure	Viscous	Internal
    Cd:	28.0399	26.7211	1.31883	0
    Cd(f):	79.1993	78.527	0.672302	0
    Cd(r):	-51.1594	-51.806	0.646528	0
    Cl:	-130.359	-130.333	-0.0257737	0
    Cl(f):	-15.1384	-15.1291	-0.00931098	0
    Cl(r):	-115.22	-115.204	-0.0164627	0
    CmPitch:	50.041	50.0374	0.00357586	0
    CmRoll:	65.1794	65.1665	0.0128868	0
    CmYaw:	14.0199	13.3605	0.659415	0
    Cs:	-2.57967e-19	-2.68814e-19	1.08469e-20	0
    Cs(f):	14.0199	13.3605	0.659415	0
    Cs(r):	-14.0199	-13.3605	-0.659415	0

    writing force and moment coefficient files.

Time = 98

smoothSolver:  Solving for omega, Initial residual = 0.00630305, Final residual = 0.000520332, No Iterations 2
smoothSolver:  Solving for k, Initial residual = 0.00111945, Final residual = 6.60691e-05, No Iterations 2
bounding k, min: -0.0172612 max: 992.419 average: 2.44212
ExecutionTime = 118.31 s  ClockTime = 118 s

forceCoeffs forceCoeffs1 write:
    Coefficient	Total	Pressure	Viscous	Internal
    Cd:	27.1516	25.8305	1.32105	0
    Cd(f):	78.4135	77.74	0.673419	0
    Cd(r):	-51.2619	-51.9095	0.647629	0
    Cl:	-129.675	-129.65	-0.0257892	0
    Cl(f):	-15.5156	-15.5063	-0.00933093	0
    Cl(r):	-114.16	-114.143	-0.0164583	0
    CmPitch:	49.322	49.3185	0.00356368	0
    CmRoll:	64.8377	64.8248	0.0128946	0
    CmYaw:	13.5758	12.9153	0.660524	0
    Cs:	-2.43277e-19	-2.52526e-19	9.24806e-21	0
    Cs(f):	13.5758	12.9153	0.660524	0
    Cs(r):	-13.5758	-12.9153	-0.660524	0

    writing force and moment coefficient files.

Time = 99

smoothSolver:  Solving for Ux, Initial residual = 0.00325354, Final residual = 0.000271263, No Iterations 2
smoothSolver:  Solving for Uy, Initial residual = 0.00690507, Final residual = 0.000557869, No Iterations 2
smoothSolver:  Solving for Ux, Initial residual = 0.0032537, Final residual = 0.000271214, No Iterations 2
smoothSolver:  Solving for Uy, Initial residual = 0.00689551, Final residual = 0.000556123, No Iterations 2
GAMG:  Solving for p, Initial residual = 0.0957216, Final residual = 0.00410019, No Iterations 4
GAMG:  Solving for p, Initial residual = 0.0926159, Final residual = 0.00401911, No Iterations 4
GAMG:  Solving for p, Initial residual = 0.00401803, Final residual = 0.000188161, No Iterations 14
GAMG:  Solving for p, Initial residual = 0.00395249, Final residual = 0.000180247, No Iterations 14
GAMG:  Solving for p, Initial residual = 0.000215262, Final residual = 7.43027e-06, No Iterations 24
GAMG:  Solving for p, Initial residual = 0.000222896, Final residual = 9.91328e-06, No Iterations 30
GAMG:  Solving for p, Initial residual = 2.0202e-05, Final residual = 9.05884e-07, No Iterations 15
time step continuity errors : sum local = 7.68142e-05, global = -6.08366e-06, cumulative = 0.000357454
GAMG:  Solving for p, Initial residual = 2.19567e-05, Final residual = 7.78617e-07, No Iterations 16
time step continuity errors : sum local = 6.70258e-05, global = -6.67107e-06, cumulative = 0.000363537
smoothSolver:  Solving for omega, Initial residual = 0.0062698, Final residual = 0.000520883, No Iterations 2
smoothSolver:  Solving for omega, Initial residual = 0.00630305, Final residual = 0.000520332, No Iterations 2
smoothSolver:  Solving for k, Initial residual = 0.00112335, Final residual = 6.77107e-05, No Iterations 2
bounding k, min: -0.10708 max: 981.197 average: 2.46143
ExecutionTime = 119.47 s  ClockTime = 120 s

smoothSolver:  Solving for k, Initial residual = 0.00111945, Final residual = 6.60691e-05, No Iterations 2
bounding k, min: -0.0172612 max: 992.419 average: 2.44212
ExecutionTime = 119.24 s  ClockTime = 120 s

forceCoeffs forceCoeffs1 write:
    Coefficient	Total	Pressure	Viscous	Internal
    Cd:	26.072	24.7489	1.32316	0
    Cd(f):	77.2634	76.5889	0.674479	0
    Cd(r):	-51.1913	-51.84	0.648678	0
    Cl:	-128.455	-128.429	-0.0258006	0
    Cl(f):	-15.9401	-15.9308	-0.00934742	0
    Cl(r):	-112.515	-112.498	-0.0164532	0
    CmPitch:	48.2872	48.2837	0.00355287	0
    CmRoll:	64.2274	64.2145	0.0129003	0
    CmYaw:	13.036	12.3744	0.661579	0
    Cs:	-2.29011e-19	-2.38905e-19	9.89479e-21	0
    Cs(f):	13.036	12.3744	0.661579	0
    Cs(r):	-13.036	-12.3744	-0.661579	0

    writing force and moment coefficient files.

Time = 100

forceCoeffs forceCoeffs1 write:
    Coefficient	Total	Pressure	Viscous	Internal
    Cd:	27.1516	25.8305	1.32105	0
    Cd(f):	78.4135	77.74	0.673419	0
    Cd(r):	-51.2619	-51.9095	0.647629	0
    Cl:	-129.675	-129.65	-0.0257892	0
    Cl(f):	-15.5156	-15.5063	-0.00933093	0
    Cl(r):	-114.16	-114.143	-0.0164583	0
    CmPitch:	49.322	49.3185	0.00356368	0
    CmRoll:	64.8377	64.8248	0.0128946	0
    CmYaw:	13.5758	12.9153	0.660524	0
    Cs:	-2.43277e-19	-2.52526e-19	9.24806e-21	0
    Cs(f):	13.5758	12.9153	0.660524	0
    Cs(r):	-13.5758	-12.9153	-0.660524	0

    writing force and moment coefficient files.

Time = 99

smoothSolver:  Solving for Ux, Initial residual = 0.00325338, Final residual = 0.000271569, No Iterations 2
smoothSolver:  Solving for Uy, Initial residual = 0.00688051, Final residual = 0.000555241, No Iterations 2
smoothSolver:  Solving for Ux, Initial residual = 0.0032537, Final residual = 0.000271214, No Iterations 2
smoothSolver:  Solving for Uy, Initial residual = 0.00689551, Final residual = 0.000556123, No Iterations 2
GAMG:  Solving for p, Initial residual = 0.0909898, Final residual = 0.00396236, No Iterations 4
GAMG:  Solving for p, Initial residual = 0.0926159, Final residual = 0.00401911, No Iterations 4
GAMG:  Solving for p, Initial residual = 0.00392901, Final residual = 0.000187169, No Iterations 14
GAMG:  Solving for p, Initial residual = 0.00395249, Final residual = 0.000180247, No Iterations 14
GAMG:  Solving for p, Initial residual = 0.000226627, Final residual = 1.08628e-05, No Iterations 18
GAMG:  Solving for p, Initial residual = 0.000215262, Final residual = 7.43027e-06, No Iterations 24
GAMG:  Solving for p, Initial residual = 2.34994e-05, Final residual = 1.01246e-06, No Iterations 14
time step continuity errors : sum local = 7.81562e-05, global = -5.65347e-06, cumulative = 0.0003518
smoothSolver:  Solving for omega, Initial residual = 0.00623313, Final residual = 0.00051872, No Iterations 2
smoothSolver:  Solving for k, Initial residual = 0.00111053, Final residual = 6.97564e-05, No Iterations 2
bounding k, min: -0.0077065 max: 965.22 average: 2.4792
GAMG:  Solving for p, Initial residual = 2.0202e-05, Final residual = 9.05884e-07, No Iterations 15
time step continuity errors : sum local = 7.68142e-05, global = -6.08366e-06, cumulative = 0.000357454
smoothSolver:  Solving for omega, Initial residual = 0.0062698, Final residual = 0.000520883, No Iterations 2
smoothSolver:  Solving for k, Initial residual = 0.00112335, Final residual = 6.77107e-05, No Iterations 2
bounding k, min: -0.10708 max: 981.197 average: 2.46143
ExecutionTime = 120.41 s  ClockTime = 121 s

forceCoeffs forceCoeffs1 write:
    Coefficient	Total	Pressure	Viscous	Internal
    Cd:	26.072	24.7489	1.32316	0
    Cd(f):	77.2634	76.5889	0.674479	0
    Cd(r):	-51.1913	-51.84	0.648678	0
    Cl:	-128.455	-128.429	-0.0258006	0
    Cl(f):	-15.9401	-15.9308	-0.00934742	0
    Cl(r):	-112.515	-112.498	-0.0164532	0
    CmPitch:	48.2872	48.2837	0.00355287	0
    CmRoll:	64.2274	64.2145	0.0129003	0
    CmYaw:	13.036	12.3744	0.661579	0
    Cs:	-2.29011e-19	-2.38905e-19	9.89479e-21	0
    Cs(f):	13.036	12.3744	0.661579	0
    Cs(r):	-13.036	-12.3744	-0.661579	0

    writing force and moment coefficient files.

Time = 100

smoothSolver:  Solving for Ux, Initial residual = 0.00325338, Final residual = 0.000271569, No Iterations 2
smoothSolver:  Solving for Uy, Initial residual = 0.00688051, Final residual = 0.000555241, No Iterations 2
GAMG:  Solving for p, Initial residual = 0.0909898, Final residual = 0.00396236, No Iterations 4
GAMG:  Solving for p, Initial residual = 0.00392901, Final residual = 0.000187169, No Iterations 14
GAMG:  Solving for p, Initial residual = 0.000226627, Final residual = 1.08628e-05, No Iterations 18
ExecutionTime = 121.43 s  ClockTime = 121 s

forceCoeffs forceCoeffs1 write:
    Coefficient	Total	Pressure	Viscous	Internal
    Cd:	25.5292	24.204	1.32523	0
    Cd(f):	76.951	76.2755	0.675511	0
    Cd(r):	-51.4218	-52.0715	0.649718	0
    Cl:	-128.373	-128.347	-0.0257933	0
    Cl(f):	-16.3006	-16.2912	-0.00935671	0
    Cl(r):	-112.072	-112.056	-0.0164366	0
    CmPitch:	47.8858	47.8823	0.00353995	0
    CmRoll:	64.1864	64.1735	0.0128967	0
    CmYaw:	12.7646	12.102	0.662615	0
    Cs:	-2.35008e-19	-2.44858e-19	9.85005e-21	0
    Cs(f):	12.7646	12.102	0.662615	0
    Cs(r):	-12.7646	-12.102	-0.662615	0

    writing force and moment coefficient files.

End

GAMG:  Solving for p, Initial residual = 2.34994e-05, Final residual = 1.01246e-06, No Iterations 14
time step continuity errors : sum local = 7.81562e-05, global = -5.65347e-06, cumulative = 0.0003518
smoothSolver:  Solving for omega, Initial residual = 0.00623313, Final residual = 0.00051872, No Iterations 2
smoothSolver:  Solving for k, Initial residual = 0.00111053, Final residual = 6.97564e-05, No Iterations 2
bounding k, min: -0.0077065 max: 965.22 average: 2.4792
ExecutionTime = 122.17 s  ClockTime = 122 s

forceCoeffs forceCoeffs1 write:
    Coefficient	Total	Pressure	Viscous	Internal
    Cd:	25.5292	24.204	1.32523	0
    Cd(f):	76.951	76.2755	0.675511	0
    Cd(r):	-51.4218	-52.0715	0.649718	0
    Cl:	-128.373	-128.347	-0.0257933	0
    Cl(f):	-16.3006	-16.2912	-0.00935671	0
    Cl(r):	-112.072	-112.056	-0.0164366	0
    CmPitch:	47.8858	47.8823	0.00353995	0
    CmRoll:	64.1864	64.1735	0.0128967	0
    CmYaw:	12.7646	12.102	0.662615	0
    Cs:	-2.35008e-19	-2.44858e-19	9.85005e-21	0
    Cs(f):	12.7646	12.102	0.662615	0
    Cs(r):	-12.7646	-12.102	-0.662615	0

    writing force and moment coefficient files.

End

