/*---------------------------------------------------------------------------*\
| =========                 |                                                 |
| \\      /  F ield         | OpenFOAM: The Open Source CFD Toolbox           |
|  \\    /   O peration     | Version:  2212                                  |
|   \\  /    A nd           | Website:  www.openfoam.com                      |
|    \\/     M anipulation  |                                                 |
\*---------------------------------------------------------------------------*/
Build  : _70874860-20230612 OPENFOAM=2212 patch=230612 version=2212
Arch   : "LSB;label=32;scalar=64"
Exec   : simpleFoam
Date   : Nov 27 2023
Time   : 11:30:45
Host   : maciek-gv62-7rc
PID    : 84586
/*---------------------------------------------------------------------------*\
| =========                 |                                                 |
| \\      /  F ield         | OpenFOAM: The Open Source CFD Toolbox           |
|  \\    /   O peration     | Version:  2212                                  |
|   \\  /    A nd           | Website:  www.openfoam.com                      |
|    \\/     M anipulation  |                                                 |
\*---------------------------------------------------------------------------*/
Build  : _70874860-20230612 OPENFOAM=2212 patch=230612 version=2212
Arch   : "LSB;label=32;scalar=64"
Exec   : simpleFoam
Date   : Nov 27 2023
Time   : 11:30:45
Host   : maciek-gv62-7rc
PID    : 84587
I/O    : uncollated
I/O    : uncollated
Case   : /home/maciek/repository/airSupport/run/NACA0015_AoA[0-3]_k-omega
nProcs : 1
Case   : /home/maciek/repository/airSupport/run/NACA0015_AoA[0-3]_k-omega
nProcs : 1
trapFpe: Floating point exception trapping enabled (FOAM_SIGFPE).
trapFpe: Floating point exception trapping enabled (FOAM_SIGFPE).
fileModificationChecking : Monitoring run-time modified files using timeStampMaster (fileModificationSkew 5, maxFileModificationPolls 20)
allowSystemOperations : Allowing user-supplied system call operations

// * * * * * * * * * * * * * * * * * * * * * * * * * * * * * * * * * * * * * //
fileModificationChecking : Monitoring run-time modified files using timeStampMaster (fileModificationSkew 5, maxFileModificationPolls 20)
allowSystemOperations : Allowing user-supplied system call operations

// * * * * * * * * * * * * * * * * * * * * * * * * * * * * * * * * * * * * * //
Create time

Create time

Create mesh for time = 0
Create mesh for time = 0


SIMPLE: convergence criteria
    field U	 tolerance 0.0001
    field p	 tolerance 0.001
    field "(k|epsilon|omega)"	 tolerance 0.001

Reading field p



SIMPLE: convergence criteria
    field U	 tolerance 0.0001
    field p	 tolerance 0.001
    field "(k|epsilon|omega)"	 tolerance 0.001

Reading field p

Reading field U

Reading field U

Reading/calculating face flux field phi

Selecting incompressible transport model Newtonian
Selecting turbulence model type RAS
Selecting RAS turbulence model kOmega
Reading/calculating face flux field phi

Selecting incompressible transport model Newtonian
Selecting turbulence model type RAS
Selecting RAS turbulence model kOmega
bounding k, min: 0 max: 965.22 average: 2.4792
RAS
{
    RASModel        kOmega;
    turbulence      on;
    printCoeffs     on;
    betaStar        0.09;
    beta            0.072;
    gamma           0.52;
    alphaK          0.5;
    alphaOmega      0.5;
}

No MRF models present

No finite volume options present

Starting time loop

forceCoeffs forceCoeffs1:
    rho: rhoInf
    Freestream density (rhoInf) set to 1
    Not including porosity effects
    magUInf: 10
    lRef   : 1
    Aref   : 1
    rhoInf : 1
    Selecting all coefficients
    - Drag force: Cd
    - Drag force front: Cd(f)
    - Drag force rear: Cd(r)
    - Lift force: Cl
    - Lift force front: Cl(f)
    - Lift force rear: Cl(r)
    - Pitch moment: CmPitch
    - Roll moment: CmRoll
    - Yaw moment: CmYaw
    - Side force: Cs
    - Side force front: Cs(f)
    - Side force rear: Cs(r)


Time = 1

bounding k, min: 0 max: 965.22 average: 2.4792
RAS
{
    RASModel        kOmega;
    turbulence      on;
    printCoeffs     on;
    betaStar        0.09;
    beta            0.072;
    gamma           0.52;
    alphaK          0.5;
    alphaOmega      0.5;
}

No MRF models present

No finite volume options present

Starting time loop

forceCoeffs forceCoeffs1:
    rho: rhoInf
    Freestream density (rhoInf) set to 1
    Not including porosity effects
    magUInf: 10
    lRef   : 1
    Aref   : 1
    rhoInf : 1
    Selecting all coefficients
    - Drag force: Cd
    - Drag force front: Cd(f)
    - Drag force rear: Cd(r)
    - Lift force: Cl
    - Lift force front: Cl(f)
    - Lift force rear: Cl(r)
    - Pitch moment: CmPitch
    - Roll moment: CmRoll
    - Yaw moment: CmYaw
    - Side force: Cs
    - Side force front: Cs(f)
    - Side force rear: Cs(r)


Time = 1

smoothSolver:  Solving for Ux, Initial residual = 0.00324665, Final residual = 0.000271418, No Iterations 2
smoothSolver:  Solving for Uy, Initial residual = 0.00684561, Final residual = 0.000552838, No Iterations 2
smoothSolver:  Solving for Ux, Initial residual = 0.00324665, Final residual = 0.000271418, No Iterations 2
smoothSolver:  Solving for Uy, Initial residual = 0.00684561, Final residual = 0.000552838, No Iterations 2
GAMG:  Solving for p, Initial residual = 0.081989, Final residual = 0.00341373, No Iterations 4
GAMG:  Solving for p, Initial residual = 0.081989, Final residual = 0.00341373, No Iterations 4
GAMG:  Solving for p, Initial residual = 0.00368769, Final residual = 0.00016656, No Iterations 15
GAMG:  Solving for p, Initial residual = 0.00368769, Final residual = 0.00016656, No Iterations 15
GAMG:  Solving for p, Initial residual = 0.000206841, Final residual = 6.98771e-06, No Iterations 30
GAMG:  Solving for p, Initial residual = 0.000206841, Final residual = 6.98771e-06, No Iterations 30
GAMG:  Solving for p, Initial residual = 1.96963e-05, Final residual = 6.71064e-07, No Iterations 17
time step continuity errors : sum local = 6.08707e-05, global = -4.93784e-06, cumulative = -4.93784e-06
GAMG:  Solving for p, Initial residual = 1.96963e-05, Final residual = 6.71064e-07, No Iterations 17
time step continuity errors : sum local = 6.08707e-05, global = -4.93784e-06, cumulative = -4.93784e-06
smoothSolver:  Solving for omega, Initial residual = 0.0062491, Final residual = 0.000520458, No Iterations 2
smoothSolver:  Solving for k, Initial residual = 0.00109837, Final residual = 6.97032e-05, No Iterations 2
bounding k, min: -0.00514918 max: 937.95 average: 2.49669
smoothSolver:  Solving for omega, Initial residual = 0.0062491, Final residual = 0.000520458, No Iterations 2
ExecutionTime = 2.76 s  ClockTime = 3 s

forceCoeffs forceCoeffs1 write:
    Coefficient	Total	Pressure	Viscous	Internal
    Cd:	25.0268	23.7019	1.32492	0
    Cd(f):	75.016	74.3406	0.675393	0
    Cd(r):	-49.9891	-50.6386	0.649526	0
    Cl:	-125.005	-124.979	-0.0258671	0
    Cl(f):	-16.7129	-16.7035	-0.00941763	0
    Cl(r):	-108.292	-108.276	-0.0164495	0
    CmPitch:	45.7896	45.7861	0.00351594	0
    CmRoll:	62.5025	62.4896	0.0129336	0
    CmYaw:	12.5134	11.851	0.66246	0
    Cs:	-2.50514e-19	-2.61082e-19	1.05683e-20	0
    Cs(f):	12.5134	11.851	0.66246	0
    Cs(r):	-12.5134	-11.851	-0.66246	0

    writing force and moment coefficient files.

Time = 2

smoothSolver:  Solving for k, Initial residual = 0.00109837, Final residual = 6.97032e-05, No Iterations 2
bounding k, min: -0.00514918 max: 937.95 average: 2.49669
ExecutionTime = 2.79 s  ClockTime = 3 s

forceCoeffs forceCoeffs1 write:
    Coefficient	Total	Pressure	Viscous	Internal
    Cd:	25.0268	23.7019	1.32492	0
    Cd(f):	75.016	74.3406	0.675393	0
    Cd(r):	-49.9891	-50.6386	0.649526	0
    Cl:	-125.005	-124.979	-0.0258671	0
    Cl(f):	-16.7129	-16.7035	-0.00941763	0
    Cl(r):	-108.292	-108.276	-0.0164495	0
    CmPitch:	45.7896	45.7861	0.00351594	0
    CmRoll:	62.5025	62.4896	0.0129336	0
    CmYaw:	12.5134	11.851	0.66246	0
    Cs:	-2.50514e-19	-2.61082e-19	1.05683e-20	0
    Cs(f):	12.5134	11.851	0.66246	0
    Cs(r):	-12.5134	-11.851	-0.66246	0

    writing force and moment coefficient files.

Time = 2

smoothSolver:  Solving for Ux, Initial residual = 0.00324885, Final residual = 0.000271133, No Iterations 2
smoothSolver:  Solving for Uy, Initial residual = 0.00684338, Final residual = 0.000551814, No Iterations 2
smoothSolver:  Solving for Ux, Initial residual = 0.00324885, Final residual = 0.000271133, No Iterations 2
smoothSolver:  Solving for Uy, Initial residual = 0.00684338, Final residual = 0.000551814, No Iterations 2
GAMG:  Solving for p, Initial residual = 0.115586, Final residual = 0.00555752, No Iterations 4
GAMG:  Solving for p, Initial residual = 0.115586, Final residual = 0.00555752, No Iterations 4
GAMG:  Solving for p, Initial residual = 0.00573732, Final residual = 0.000281894, No Iterations 17
GAMG:  Solving for p, Initial residual = 0.00573732, Final residual = 0.000281894, No Iterations 17
GAMG:  Solving for p, Initial residual = 0.00040435, Final residual = 1.95642e-05, No Iterations 18
GAMG:  Solving for p, Initial residual = 0.00040435, Final residual = 1.95642e-05, No Iterations 18
GAMG:  Solving for p, Initial residual = 4.74651e-05, Final residual = 1.87555e-06, No Iterations 16
time step continuity errors : sum local = 9.08124e-05, global = -6.90231e-06, cumulative = -1.18402e-05
GAMG:  Solving for p, Initial residual = 4.74651e-05, Final residual = 1.87555e-06, No Iterations 16
time step continuity errors : sum local = 9.08124e-05, global = -6.90231e-06, cumulative = -1.18402e-05
smoothSolver:  Solving for omega, Initial residual = 0.00626972, Final residual = 0.000522213, No Iterations 2
smoothSolver:  Solving for k, Initial residual = 0.00110846, Final residual = 7.10532e-05, No Iterations 2
bounding k, min: -0.00571592 max: 907.377 average: 2.51312
smoothSolver:  Solving for omega, Initial residual = 0.00626972, Final residual = 0.000522213, No Iterations 2
ExecutionTime = 3.89 s  ClockTime = 4 s

forceCoeffs forceCoeffs1 write:
    Coefficient	Total	Pressure	Viscous	Internal
    Cd:	26.5522	25.2249	1.32735	0
    Cd(f):	77.096	76.4194	0.676548	0
    Cd(r):	-50.5438	-51.1946	0.650807	0
    Cl:	-127.64	-127.614	-0.0257413	0
    Cl(f):	-16.8063	-16.7969	-0.00938205	0
    Cl(r):	-110.833	-110.817	-0.0163592	0
    CmPitch:	47.0136	47.0101	0.00348858	0
    CmRoll:	63.8199	63.807	0.0128706	0
    CmYaw:	13.2761	12.6124	0.663677	0
    Cs:	-3.17559e-19	-3.30965e-19	1.34058e-20	0
    Cs(f):	13.2761	12.6124	0.663677	0
    Cs(r):	-13.2761	-12.6124	-0.663677	0

    writing force and moment coefficient files.

Time = 3

smoothSolver:  Solving for k, Initial residual = 0.00110846, Final residual = 7.10532e-05, No Iterations 2
bounding k, min: -0.00571592 max: 907.377 average: 2.51312
ExecutionTime = 3.93 s  ClockTime = 4 s

forceCoeffs forceCoeffs1 write:
    Coefficient	Total	Pressure	Viscous	Internal
    Cd:	26.5522	25.2249	1.32735	0
    Cd(f):	77.096	76.4194	0.676548	0
    Cd(r):	-50.5438	-51.1946	0.650807	0
    Cl:	-127.64	-127.614	-0.0257413	0
    Cl(f):	-16.8063	-16.7969	-0.00938205	0
    Cl(r):	-110.833	-110.817	-0.0163592	0
    CmPitch:	47.0136	47.0101	0.00348858	0
    CmRoll:	63.8199	63.807	0.0128706	0
    CmYaw:	13.2761	12.6124	0.663677	0
    Cs:	-3.17559e-19	-3.30965e-19	1.34058e-20	0
    Cs(f):	13.2761	12.6124	0.663677	0
    Cs(r):	-13.2761	-12.6124	-0.663677	0

    writing force and moment coefficient files.

Time = 3

smoothSolver:  Solving for Ux, Initial residual = 0.0032456, Final residual = 0.000270792, No Iterations 2
smoothSolver:  Solving for Uy, Initial residual = 0.00684173, Final residual = 0.000551387, No Iterations 2
smoothSolver:  Solving for Ux, Initial residual = 0.0032456, Final residual = 0.000270792, No Iterations 2
smoothSolver:  Solving for Uy, Initial residual = 0.00684173, Final residual = 0.000551387, No Iterations 2
GAMG:  Solving for p, Initial residual = 0.120833, Final residual = 0.00511915, No Iterations 5
GAMG:  Solving for p, Initial residual = 0.120833, Final residual = 0.00511915, No Iterations 5
GAMG:  Solving for p, Initial residual = 0.00530667, Final residual = 0.000254736, No Iterations 24
GAMG:  Solving for p, Initial residual = 0.00530667, Final residual = 0.000254736, No Iterations 24
GAMG:  Solving for p, Initial residual = 0.000492264, Final residual = 1.79405e-05, No Iterations 18
GAMG:  Solving for p, Initial residual = 0.000492264, Final residual = 1.79405e-05, No Iterations 18
GAMG:  Solving for p, Initial residual = 4.2924e-05, Final residual = 1.53267e-06, No Iterations 19
time step continuity errors : sum local = 8.19299e-05, global = -6.53174e-06, cumulative = -1.83719e-05
GAMG:  Solving for p, Initial residual = 4.2924e-05, Final residual = 1.53267e-06, No Iterations 19
time step continuity errors : sum local = 8.19299e-05, global = -6.53174e-06, cumulative = -1.83719e-05
smoothSolver:  Solving for omega, Initial residual = 0.00631007, Final residual = 0.000519688, No Iterations 2
smoothSolver:  Solving for k, Initial residual = 0.00110862, Final residual = 7.15814e-05, No Iterations 2
bounding k, min: -0.18028 max: 861.103 average: 2.52903
ExecutionTime = 5.17 s  ClockTime = 5 s

forceCoeffs forceCoeffs1 write:
    Coefficient	Total	Pressure	Viscous	Internal
    Cd:	30.9598	29.6295	1.33034	0
    Cd(f):	82.0218	81.3438	0.678007	0
    Cd(r):	-51.062	-51.7144	0.652337	0
    Cl:	-133.084	-133.058	-0.0256699	0
    Cl(f):	-16.6684	-16.6591	-0.00937015	0
    Cl(r):	-116.415	-116.399	-0.0162998	0
    CmPitch:	49.8735	49.87	0.00346481	0
    CmRoll:	66.5419	66.5291	0.012835	0
    CmYaw:	15.4799	14.8147	0.665172	0
    Cs:	-4.19837e-19	-4.36487e-19	1.66505e-20	0
    Cs(f):	15.4799	14.8147	0.665172	0
    Cs(r):	-15.4799	-14.8147	-0.665172	0

    writing force and moment coefficient files.

Time = 4

smoothSolver:  Solving for omega, Initial residual = 0.00631007, Final residual = 0.000519688, No Iterations 2
smoothSolver:  Solving for k, Initial residual = 0.00110862, Final residual = 7.15814e-05, No Iterations 2
bounding k, min: -0.18028 max: 861.103 average: 2.52903
ExecutionTime = 5.24 s  ClockTime = 5 s

forceCoeffs forceCoeffs1 write:
    Coefficient	Total	Pressure	Viscous	Internal
    Cd:	30.9598	29.6295	1.33034	0
    Cd(f):	82.0218	81.3438	0.678007	0
    Cd(r):	-51.062	-51.7144	0.652337	0
    Cl:	-133.084	-133.058	-0.0256699	0
    Cl(f):	-16.6684	-16.6591	-0.00937015	0
    Cl(r):	-116.415	-116.399	-0.0162998	0
    CmPitch:	49.8735	49.87	0.00346481	0
    CmRoll:	66.5419	66.5291	0.012835	0
    CmYaw:	15.4799	14.8147	0.665172	0
    Cs:	-4.19837e-19	-4.36487e-19	1.66505e-20	0
    Cs(f):	15.4799	14.8147	0.665172	0
    Cs(r):	-15.4799	-14.8147	-0.665172	0

    writing force and moment coefficient files.

Time = 4

smoothSolver:  Solving for Ux, Initial residual = 0.00324398, Final residual = 0.000270693, No Iterations 2
smoothSolver:  Solving for Uy, Initial residual = 0.00683261, Final residual = 0.000551367, No Iterations 2
smoothSolver:  Solving for Ux, Initial residual = 0.00324398, Final residual = 0.000270693, No Iterations 2
smoothSolver:  Solving for Uy, Initial residual = 0.00683261, Final residual = 0.000551367, No Iterations 2
GAMG:  Solving for p, Initial residual = 0.15216, Final residual = 0.00480727, No Iterations 5
GAMG:  Solving for p, Initial residual = 0.15216, Final residual = 0.00480727, No Iterations 5
GAMG:  Solving for p, Initial residual = 0.00514997, Final residual = 0.000227835, No Iterations 24
GAMG:  Solving for p, Initial residual = 0.00514997, Final residual = 0.000227835, No Iterations 24
GAMG:  Solving for p, Initial residual = 0.000356837, Final residual = 1.43191e-05, No Iterations 18
GAMG:  Solving for p, Initial residual = 0.000356837, Final residual = 1.43191e-05, No Iterations 18
GAMG:  Solving for p, Initial residual = 3.32492e-05, Final residual = 1.49819e-06, No Iterations 18
time step continuity errors : sum local = 9.74598e-05, global = -7.68214e-06, cumulative = -2.6054e-05
GAMG:  Solving for p, Initial residual = 3.32492e-05, Final residual = 1.49819e-06, No Iterations 18
smoothSolver:  Solving for omega, Initial residual = 0.0063269, Final residual = 0.000520581, No Iterations 2
time step continuity errors : sum local = 9.74598e-05, global = -7.68214e-06, cumulative = -2.6054e-05
smoothSolver:  Solving for k, Initial residual = 0.00110895, Final residual = 7.244e-05, No Iterations 2
bounding k, min: -0.0130991 max: 823.933 average: 2.54423
ExecutionTime = 6.42 s  ClockTime = 7 s

forceCoeffs forceCoeffs1 write:
    Coefficient	Total	Pressure	Viscous	Internal
    Cd:	36.0814	34.7475	1.33393	0
    Cd(f):	88.1327	87.4529	0.679784	0
    Cd(r):	-52.0513	-52.7054	0.654147	0
    Cl:	-140.184	-140.158	-0.0256372	0
    Cl(f):	-16.5637	-16.5543	-0.00937364	0
    Cl(r):	-123.62	-123.604	-0.0162636	0
    CmPitch:	53.5283	53.5248	0.00344497	0
    CmRoll:	70.092	70.0792	0.0128186	0
    CmYaw:	18.0407	17.3737	0.666965	0
    Cs:	-5.25443e-19	-5.44756e-19	1.9313e-20	0
    Cs(f):	18.0407	17.3737	0.666965	0
    Cs(r):	-18.0407	-17.3737	-0.666965	0

    writing force and moment coefficient files.

Time = 5

smoothSolver:  Solving for omega, Initial residual = 0.0063269, Final residual = 0.000520581, No Iterations 2
smoothSolver:  Solving for k, Initial residual = 0.00110895, Final residual = 7.244e-05, No Iterations 2
bounding k, min: -0.0130991 max: 823.933 average: 2.54423
ExecutionTime = 6.5 s  ClockTime = 7 s

forceCoeffs forceCoeffs1 write:
    Coefficient	Total	Pressure	Viscous	Internal
    Cd:	36.0814	34.7475	1.33393	0
    Cd(f):	88.1327	87.4529	0.679784	0
    Cd(r):	-52.0513	-52.7054	0.654147	0
    Cl:	-140.184	-140.158	-0.0256372	0
    Cl(f):	-16.5637	-16.5543	-0.00937364	0
    Cl(r):	-123.62	-123.604	-0.0162636	0
    CmPitch:	53.5283	53.5248	0.00344497	0
    CmRoll:	70.092	70.0792	0.0128186	0
    CmYaw:	18.0407	17.3737	0.666965	0
    Cs:	-5.25443e-19	-5.44756e-19	1.9313e-20	0
    Cs(f):	18.0407	17.3737	0.666965	0
    Cs(r):	-18.0407	-17.3737	-0.666965	0

    writing force and moment coefficient files.

Time = 5

smoothSolver:  Solving for Ux, Initial residual = 0.00324687, Final residual = 0.000271132, No Iterations 2
smoothSolver:  Solving for Uy, Initial residual = 0.00682756, Final residual = 0.000551038, No Iterations 2
GAMG:  Solving for p, Initial residual = 0.179506, Final residual = 0.00864166, No Iterations 4
smoothSolver:  Solving for Ux, Initial residual = 0.00324687, Final residual = 0.000271132, No Iterations 2
smoothSolver:  Solving for Uy, Initial residual = 0.00682756, Final residual = 0.000551038, No Iterations 2
GAMG:  Solving for p, Initial residual = 0.179506, Final residual = 0.00864166, No Iterations 4
GAMG:  Solving for p, Initial residual = 0.00891997, Final residual = 0.000413917, No Iterations 15
GAMG:  Solving for p, Initial residual = 0.00891997, Final residual = 0.000413917, No Iterations 15
GAMG:  Solving for p, Initial residual = 0.000446108, Final residual = 1.66092e-05, No Iterations 20
GAMG:  Solving for p, Initial residual = 0.000446108, Final residual = 1.66092e-05, No Iterations 20
GAMG:  Solving for p, Initial residual = 3.12003e-05, Final residual = 1.23331e-06, No Iterations 18
time step continuity errors : sum local = 8.06247e-05, global = -5.49886e-06, cumulative = -3.15529e-05
smoothSolver:  Solving for omega, Initial residual = 0.00625077, Final residual = 0.000514392, No Iterations 2
GAMG:  Solving for p, Initial residual = 3.12003e-05, Final residual = 1.23331e-06, No Iterations 18
time step continuity errors : sum local = 8.06247e-05, global = -5.49886e-06, cumulative = -3.15529e-05
smoothSolver:  Solving for k, Initial residual = 0.00110738, Final residual = 7.2711e-05, No Iterations 2
bounding k, min: -0.0245394 max: 787.223 average: 2.55954
ExecutionTime = 7.56 s  ClockTime = 8 s

forceCoeffs forceCoeffs1 write:
    Coefficient	Total	Pressure	Viscous	Internal
    Cd:	38.1649	36.8271	1.33778	0
    Cd(f):	92.7441	92.0624	0.68172	0
    Cd(r):	-54.5792	-55.2353	0.656061	0
    Cl:	-147.323	-147.298	-0.0256589	0
    Cl(f):	-16.7946	-16.7852	-0.00939901	0
    Cl(r):	-130.529	-130.513	-0.0162599	0
    CmPitch:	56.8671	56.8637	0.00343045	0
    CmRoll:	73.6617	73.6488	0.0128295	0
    CmYaw:	19.0824	18.4135	0.668891	0
    Cs:	-5.83098e-19	-6.05734e-19	2.26362e-20	0
    Cs(f):	19.0824	18.4135	0.668891	0
    Cs(r):	-19.0824	-18.4135	-0.668891	0

    writing force and moment coefficient files.

Time = 6

smoothSolver:  Solving for omega, Initial residual = 0.00625077, Final residual = 0.000514392, No Iterations 2
smoothSolver:  Solving for k, Initial residual = 0.00110738, Final residual = 7.2711e-05, No Iterations 2
bounding k, min: -0.0245394 max: 787.223 average: 2.55954
ExecutionTime = 7.64 s  ClockTime = 8 s

forceCoeffs forceCoeffs1 write:
    Coefficient	Total	Pressure	Viscous	Internal
    Cd:	38.1649	36.8271	1.33778	0
    Cd(f):	92.7441	92.0624	0.68172	0
    Cd(r):	-54.5792	-55.2353	0.656061	0
    Cl:	-147.323	-147.298	-0.0256589	0
    Cl(f):	-16.7946	-16.7852	-0.00939901	0
    Cl(r):	-130.529	-130.513	-0.0162599	0
    CmPitch:	56.8671	56.8637	0.00343045	0
    CmRoll:	73.6617	73.6488	0.0128295	0
    CmYaw:	19.0824	18.4135	0.668891	0
    Cs:	-5.83098e-19	-6.05734e-19	2.26362e-20	0
    Cs(f):	19.0824	18.4135	0.668891	0
    Cs(r):	-19.0824	-18.4135	-0.668891	0

    writing force and moment coefficient files.

Time = 6

smoothSolver:  Solving for Ux, Initial residual = 0.00325881, Final residual = 0.000270821, No Iterations 2
smoothSolver:  Solving for Uy, Initial residual = 0.00682748, Final residual = 0.000549371, No Iterations 2
smoothSolver:  Solving for Ux, Initial residual = 0.00325881, Final residual = 0.000270821, No Iterations 2
smoothSolver:  Solving for Uy, Initial residual = 0.00682748, Final residual = 0.000549371, No Iterations 2
GAMG:  Solving for p, Initial residual = 0.184382, Final residual = 0.00607858, No Iterations 5
GAMG:  Solving for p, Initial residual = 0.184382, Final residual = 0.00607858, No Iterations 5
GAMG:  Solving for p, Initial residual = 0.0062808, Final residual = 0.00028248, No Iterations 21
GAMG:  Solving for p, Initial residual = 0.0062808, Final residual = 0.00028248, No Iterations 21
GAMG:  Solving for p, Initial residual = 0.000405401, Final residual = 1.50526e-05, No Iterations 24
GAMG:  Solving for p, Initial residual = 0.000405401, Final residual = 1.50526e-05, No Iterations 24
GAMG:  Solving for p, Initial residual = 4.19863e-05, Final residual = 1.64085e-06, No Iterations 28
time step continuity errors : sum local = 7.80792e-05, global = -5.90591e-06, cumulative = -3.74588e-05
smoothSolver:  Solving for omega, Initial residual = 0.0062266, Final residual = 0.000515514, No Iterations 2
GAMG:  Solving for p, Initial residual = 4.19863e-05, Final residual = 1.64085e-06, No Iterations 28
time step continuity errors : sum local = 7.80792e-05, global = -5.90591e-06, cumulative = -3.74588e-05
smoothSolver:  Solving for k, Initial residual = 0.00109778, Final residual = 7.22962e-05, No Iterations 2
bounding k, min: 0 max: 758.544 average: 2.57446
ExecutionTime = 8.98 s  ClockTime = 9 s

forceCoeffs forceCoeffs1 write:
    Coefficient	Total	Pressure	Viscous	Internal
    Cd:	36.1143	34.7729	1.34141	0
    Cd(f):	95.6771	94.9935	0.683587	0
    Cd(r):	-59.5627	-60.2206	0.657822	0
    Cl:	-155.24	-155.214	-0.0257655	0
    Cl(f):	-17.4439	-17.4344	-0.00945606	0
    Cl(r):	-137.796	-137.78	-0.0163094	0
    CmPitch:	60.176	60.1726	0.00342668	0
    CmRoll:	77.6199	77.607	0.0128827	0
    CmYaw:	18.0572	17.3865	0.670704	0
    Cs:	-5.67401e-19	-5.87088e-19	1.96872e-20	0
    Cs(f):	18.0572	17.3865	0.670704	0
    Cs(r):	-18.0572	-17.3865	-0.670704	0

    writing force and moment coefficient files.

Time = 7

smoothSolver:  Solving for omega, Initial residual = 0.0062266, Final residual = 0.000515514, No Iterations 2
smoothSolver:  Solving for k, Initial residual = 0.00109778, Final residual = 7.22962e-05, No Iterations 2
bounding k, min: 0 max: 758.544 average: 2.57446
ExecutionTime = 9.05 s  ClockTime = 9 s

forceCoeffs forceCoeffs1 write:
    Coefficient	Total	Pressure	Viscous	Internal
    Cd:	36.1143	34.7729	1.34141	0
    Cd(f):	95.6771	94.9935	0.683587	0
    Cd(r):	-59.5627	-60.2206	0.657822	0
    Cl:	-155.24	-155.214	-0.0257655	0
    Cl(f):	-17.4439	-17.4344	-0.00945606	0
    Cl(r):	-137.796	-137.78	-0.0163094	0
    CmPitch:	60.176	60.1726	0.00342668	0
    CmRoll:	77.6199	77.607	0.0128827	0
    CmYaw:	18.0572	17.3865	0.670704	0
    Cs:	-5.67401e-19	-5.87088e-19	1.96872e-20	0
    Cs(f):	18.0572	17.3865	0.670704	0
    Cs(r):	-18.0572	-17.3865	-0.670704	0

    writing force and moment coefficient files.

Time = 7

smoothSolver:  Solving for Ux, Initial residual = 0.00325964, Final residual = 0.000270694, No Iterations 2
smoothSolver:  Solving for Uy, Initial residual = 0.00680476, Final residual = 0.000547906, No Iterations 2
smoothSolver:  Solving for Ux, Initial residual = 0.00325964, Final residual = 0.000270694, No Iterations 2
GAMG:  Solving for p, Initial residual = 0.178686, Final residual = 0.00659821, No Iterations 5
smoothSolver:  Solving for Uy, Initial residual = 0.00680476, Final residual = 0.000547906, No Iterations 2
GAMG:  Solving for p, Initial residual = 0.178686, Final residual = 0.00659821, No Iterations 5
GAMG:  Solving for p, Initial residual = 0.00718891, Final residual = 0.000341752, No Iterations 21
GAMG:  Solving for p, Initial residual = 0.00718891, Final residual = 0.000341752, No Iterations 21
GAMG:  Solving for p, Initial residual = 0.000435536, Final residual = 1.86646e-05, No Iterations 20
GAMG:  Solving for p, Initial residual = 0.000435536, Final residual = 1.86646e-05, No Iterations 20
GAMG:  Solving for p, Initial residual = 4.68336e-05, Final residual = 2.19084e-06, No Iterations 22
time step continuity errors : sum local = 0.000119287, global = 7.93145e-06, cumulative = -2.95274e-05
smoothSolver:  Solving for omega, Initial residual = 0.0062143, Final residual = 0.000514911, No Iterations 2
GAMG:  Solving for p, Initial residual = 4.68336e-05, Final residual = 2.19084e-06, No Iterations 22
time step continuity errors : sum local = 0.000119287, global = 7.93145e-06, cumulative = -2.95274e-05
smoothSolver:  Solving for k, Initial residual = 0.00110103, Final residual = 7.17779e-05, No Iterations 2
bounding k, min: -0.0813883 max: 729.286 average: 2.58953
ExecutionTime = 10.24 s  ClockTime = 10 s

forceCoeffs forceCoeffs1 write:
    Coefficient	Total	Pressure	Viscous	Internal
    Cd:	30.951	29.6066	1.34442	0
    Cd(f):	97.25	96.5648	0.685182	0
    Cd(r):	-66.2991	-66.9583	0.659235	0
    Cl:	-163.549	-163.523	-0.025947	0
    Cl(f):	-18.4145	-18.405	-0.00953591	0
    Cl(r):	-145.135	-145.118	-0.0164111	0
    CmPitch:	63.36	63.3566	0.00343758	0
    CmRoll:	81.7745	81.7616	0.0129735	0
    CmYaw:	15.4755	14.8033	0.672208	0
    Cs:	-4.87964e-19	-5.07612e-19	1.96474e-20	0
    Cs(f):	15.4755	14.8033	0.672208	0
    Cs(r):	-15.4755	-14.8033	-0.672208	0

    writing force and moment coefficient files.

Time = 8

smoothSolver:  Solving for omega, Initial residual = 0.0062143, Final residual = 0.000514911, No Iterations 2
smoothSolver:  Solving for k, Initial residual = 0.00110103, Final residual = 7.17779e-05, No Iterations 2
bounding k, min: -0.0813883 max: 729.286 average: 2.58953
ExecutionTime = 10.33 s  ClockTime = 10 s

forceCoeffs forceCoeffs1 write:
    Coefficient	Total	Pressure	Viscous	Internal
    Cd:	30.951	29.6066	1.34442	0
    Cd(f):	97.25	96.5648	0.685182	0
    Cd(r):	-66.2991	-66.9583	0.659235	0
    Cl:	-163.549	-163.523	-0.025947	0
    Cl(f):	-18.4145	-18.405	-0.00953591	0
    Cl(r):	-145.135	-145.118	-0.0164111	0
    CmPitch:	63.36	63.3566	0.00343758	0
    CmRoll:	81.7745	81.7616	0.0129735	0
    CmYaw:	15.4755	14.8033	0.672208	0
    Cs:	-4.87964e-19	-5.07612e-19	1.96474e-20	0
    Cs(f):	15.4755	14.8033	0.672208	0
    Cs(r):	-15.4755	-14.8033	-0.672208	0

    writing force and moment coefficient files.

Time = 8

smoothSolver:  Solving for Ux, Initial residual = 0.00325955, Final residual = 0.000271083, No Iterations 2
smoothSolver:  Solving for Uy, Initial residual = 0.00678595, Final residual = 0.000547127, No Iterations 2
smoothSolver:  Solving for Ux, Initial residual = 0.00325955, Final residual = 0.000271083, No Iterations 2
smoothSolver:  Solving for Uy, Initial residual = 0.00678595, Final residual = 0.000547127, No Iterations 2
GAMG:  Solving for p, Initial residual = 0.186842, Final residual = 0.00661579, No Iterations 5
GAMG:  Solving for p, Initial residual = 0.186842, Final residual = 0.00661579, No Iterations 5
GAMG:  Solving for p, Initial residual = 0.00620184, Final residual = 0.000276958, No Iterations 21
GAMG:  Solving for p, Initial residual = 0.00620184, Final residual = 0.000276958, No Iterations 21
GAMG:  Solving for p, Initial residual = 0.000338742, Final residual = 1.24895e-05, No Iterations 18
GAMG:  Solving for p, Initial residual = 0.000338742, Final residual = 1.24895e-05, No Iterations 18
GAMG:  Solving for p, Initial residual = 3.60309e-05, Final residual = 1.43187e-06, No Iterations 17
time step continuity errors : sum local = 9.7201e-05, global = 7.91219e-06, cumulative = -2.16152e-05
smoothSolver:  Solving for omega, Initial residual = 0.00621815, Final residual = 0.000515886, No Iterations 2
GAMG:  Solving for p, Initial residual = 3.60309e-05, Final residual = 1.43187e-06, No Iterations 17
time step continuity errors : sum local = 9.7201e-05, global = 7.91219e-06, cumulative = -2.16152e-05
smoothSolver:  Solving for k, Initial residual = 0.00110861, Final residual = 7.08967e-05, No Iterations 2
bounding k, min: -0.054179 max: 703.693 average: 2.60438
ExecutionTime = 11.44 s  ClockTime = 12 s

forceCoeffs forceCoeffs1 write:
    Coefficient	Total	Pressure	Viscous	Internal
    Cd:	24.6151	23.2684	1.34664	0
    Cd(f):	97.9727	97.2863	0.686421	0
    Cd(r):	-73.3576	-74.0179	0.660223	0
    Cl:	-171.33	-171.304	-0.0261982	0
    Cl(f):	-19.5152	-19.5056	-0.00964009	0
    Cl(r):	-151.815	-151.799	-0.0165581	0
    CmPitch:	66.15	66.1465	0.00345901	0
    CmRoll:	85.6652	85.6521	0.0130991	0
    CmYaw:	12.3075	11.6342	0.673322	0
    Cs:	-3.91116e-19	-4.07732e-19	1.66168e-20	0
    Cs(f):	12.3075	11.6342	0.673322	0
    Cs(r):	-12.3075	-11.6342	-0.673322	0

    writing force and moment coefficient files.

Time = 9

smoothSolver:  Solving for omega, Initial residual = 0.00621815, Final residual = 0.000515886, No Iterations 2
smoothSolver:  Solving for k, Initial residual = 0.00110861, Final residual = 7.08967e-05, No Iterations 2
bounding k, min: -0.054179 max: 703.693 average: 2.60438
ExecutionTime = 11.53 s  ClockTime = 12 s

forceCoeffs forceCoeffs1 write:
    Coefficient	Total	Pressure	Viscous	Internal
    Cd:	24.6151	23.2684	1.34664	0
    Cd(f):	97.9727	97.2863	0.686421	0
    Cd(r):	-73.3576	-74.0179	0.660223	0
    Cl:	-171.33	-171.304	-0.0261982	0
    Cl(f):	-19.5152	-19.5056	-0.00964009	0
    Cl(r):	-151.815	-151.799	-0.0165581	0
    CmPitch:	66.15	66.1465	0.00345901	0
    CmRoll:	85.6652	85.6521	0.0130991	0
    CmYaw:	12.3075	11.6342	0.673322	0
    Cs:	-3.91116e-19	-4.07732e-19	1.66168e-20	0
    Cs(f):	12.3075	11.6342	0.673322	0
    Cs(r):	-12.3075	-11.6342	-0.673322	0

    writing force and moment coefficient files.

Time = 9

smoothSolver:  Solving for Ux, Initial residual = 0.00325439, Final residual = 0.00027076, No Iterations 2
smoothSolver:  Solving for Uy, Initial residual = 0.0067589, Final residual = 0.000545413, No Iterations 2
GAMG:  Solving for p, Initial residual = 0.163535, Final residual = 0.00527709, No Iterations 5
smoothSolver:  Solving for Ux, Initial residual = 0.00325439, Final residual = 0.00027076, No Iterations 2
smoothSolver:  Solving for Uy, Initial residual = 0.0067589, Final residual = 0.000545413, No Iterations 2
GAMG:  Solving for p, Initial residual = 0.163535, Final residual = 0.00527709, No Iterations 5
GAMG:  Solving for p, Initial residual = 0.00471981, Final residual = 0.000218223, No Iterations 19
GAMG:  Solving for p, Initial residual = 0.00471981, Final residual = 0.000218223, No Iterations 19
GAMG:  Solving for p, Initial residual = 0.000276502, Final residual = 1.11646e-05, No Iterations 18
GAMG:  Solving for p, Initial residual = 0.000276502, Final residual = 1.11646e-05, No Iterations 18
GAMG:  Solving for p, Initial residual = 2.97273e-05, Final residual = 1.24068e-06, No Iterations 17
time step continuity errors : sum local = 9.06322e-05, global = 7.45413e-06, cumulative = -1.4161e-05
smoothSolver:  Solving for omega, Initial residual = 0.00619899, Final residual = 0.000512828, No Iterations 2
GAMG:  Solving for p, Initial residual = 2.97273e-05, Final residual = 1.24068e-06, No Iterations 17
time step continuity errors : sum local = 9.06322e-05, global = 7.45413e-06, cumulative = -1.4161e-05
smoothSolver:  Solving for k, Initial residual = 0.00111178, Final residual = 6.84608e-05, No Iterations 2
bounding k, min: -0.0921251 max: 746.095 average: 2.6197
ExecutionTime = 12.61 s  ClockTime = 13 s

forceCoeffs forceCoeffs1 write:
    Coefficient	Total	Pressure	Viscous	Internal
    Cd:	19.2643	17.9161	1.34821	0
    Cd(f):	98.7642	98.0769	0.687337	0
    Cd(r):	-79.5	-80.1608	0.660877	0
    Cl:	-178.264	-178.238	-0.02646	0
    Cl(f):	-20.5737	-20.5639	-0.00975384	0
    Cl(r):	-157.69	-157.674	-0.0167061	0
    CmPitch:	68.5584	68.5549	0.00347614	0
    CmRoll:	89.1321	89.1189	0.01323	0
    CmYaw:	9.63213	8.95803	0.674107	0
    Cs:	-3.10298e-19	-3.24282e-19	1.39846e-20	0
    Cs(f):	9.63213	8.95803	0.674107	0
    Cs(r):	-9.63213	-8.95803	-0.674107	0

    writing force and moment coefficient files.

Time = 10

smoothSolver:  Solving for omega, Initial residual = 0.00619899, Final residual = 0.000512828, No Iterations 2
smoothSolver:  Solving for k, Initial residual = 0.00111178, Final residual = 6.84608e-05, No Iterations 2
bounding k, min: -0.0921251 max: 746.095 average: 2.6197
ExecutionTime = 12.69 s  ClockTime = 13 s

forceCoeffs forceCoeffs1 write:
    Coefficient	Total	Pressure	Viscous	Internal
    Cd:	19.2643	17.9161	1.34821	0
    Cd(f):	98.7642	98.0769	0.687337	0
    Cd(r):	-79.5	-80.1608	0.660877	0
    Cl:	-178.264	-178.238	-0.02646	0
    Cl(f):	-20.5737	-20.5639	-0.00975384	0
    Cl(r):	-157.69	-157.674	-0.0167061	0
    CmPitch:	68.5584	68.5549	0.00347614	0
    CmRoll:	89.1321	89.1189	0.01323	0
    CmYaw:	9.63213	8.95803	0.674107	0
    Cs:	-3.10298e-19	-3.24282e-19	1.39846e-20	0
    Cs(f):	9.63213	8.95803	0.674107	0
    Cs(r):	-9.63213	-8.95803	-0.674107	0

    writing force and moment coefficient files.

Time = 10

smoothSolver:  Solving for Ux, Initial residual = 0.0032495, Final residual = 0.000270725, No Iterations 2
smoothSolver:  Solving for Uy, Initial residual = 0.00673673, Final residual = 0.00054426, No Iterations 2
GAMG:  Solving for p, Initial residual = 0.142174, Final residual = 0.00447603, No Iterations 5
smoothSolver:  Solving for Ux, Initial residual = 0.0032495, Final residual = 0.000270725, No Iterations 2
smoothSolver:  Solving for Uy, Initial residual = 0.00673673, Final residual = 0.00054426, No Iterations 2
GAMG:  Solving for p, Initial residual = 0.142174, Final residual = 0.00447603, No Iterations 5
GAMG:  Solving for p, Initial residual = 0.00412875, Final residual = 0.00017219, No Iterations 19
GAMG:  Solving for p, Initial residual = 0.00412875, Final residual = 0.00017219, No Iterations 19
GAMG:  Solving for p, Initial residual = 0.000229154, Final residual = 9.02463e-06, No Iterations 20
GAMG:  Solving for p, Initial residual = 0.000229154, Final residual = 9.02463e-06, No Iterations 20
GAMG:  Solving for p, Initial residual = 2.43532e-05, Final residual = 8.3646e-07, No Iterations 19
time step continuity errors : sum local = 6.28682e-05, global = 4.42173e-06, cumulative = -9.7393e-06
smoothSolver:  Solving for omega, Initial residual = 0.00621259, Final residual = 0.000510903, No Iterations 2
smoothSolver:  Solving for k, Initial residual = 0.00111951, Final residual = 6.81278e-05, No Iterations 2
bounding k, min: -0.143016 max: 750.906 average: 2.63535
GAMG:  Solving for p, Initial residual = 2.43532e-05, Final residual = 8.3646e-07, No Iterations 19
ExecutionTime = 13.87 s  ClockTime = 14 s

time step continuity errors : sum local = 6.28682e-05, global = 4.42173e-06, cumulative = -9.7393e-06
forceCoeffs forceCoeffs1 write:
    Coefficient	Total	Pressure	Viscous	Internal
    Cd:	15.251	13.9017	1.34929	0
    Cd(f):	99.9955	99.3075	0.688004	0
    Cd(r):	-84.7445	-85.4058	0.661283	0
    Cl:	-184.74	-184.713	-0.0267215	0
    Cl(f):	-21.5483	-21.5385	-0.00986859	0
    Cl(r):	-163.192	-163.175	-0.0168529	0
    CmPitch:	70.8217	70.8182	0.00349215	0
    CmRoll:	92.37	92.3567	0.0133607	0
    CmYaw:	7.62548	6.95084	0.674643	0
    Cs:	-2.50526e-19	-2.63609e-19	1.30834e-20	0
    Cs(f):	7.62548	6.95084	0.674643	0
    Cs(r):	-7.62548	-6.95084	-0.674643	0

    writing force and moment coefficient files.

Time = 11

smoothSolver:  Solving for omega, Initial residual = 0.00621259, Final residual = 0.000510903, No Iterations 2
smoothSolver:  Solving for k, Initial residual = 0.00111951, Final residual = 6.81278e-05, No Iterations 2
bounding k, min: -0.143016 max: 750.906 average: 2.63535
ExecutionTime = 13.98 s  ClockTime = 14 s

smoothSolver:  Solving for Ux, Initial residual = 0.00324492, Final residual = 0.000270361, No Iterations 2
forceCoeffs forceCoeffs1 write:
    Coefficient	Total	Pressure	Viscous	Internal
    Cd:	15.251	13.9017	1.34929	0
    Cd(f):	99.9955	99.3075	0.688004	0
    Cd(r):	-84.7445	-85.4058	0.661283	0
    Cl:	-184.74	-184.713	-0.0267215	0
    Cl(f):	-21.5483	-21.5385	-0.00986859	0
    Cl(r):	-163.192	-163.175	-0.0168529	0
    CmPitch:	70.8217	70.8182	0.00349215	0
    CmRoll:	92.37	92.3567	0.0133607	0
    CmYaw:	7.62548	6.95084	0.674643	0
    Cs:	-2.50526e-19	-2.63609e-19	1.30834e-20	0
    Cs(f):	7.62548	6.95084	0.674643	0
    Cs(r):	-7.62548	-6.95084	-0.674643	0

    writing force and moment coefficient files.

Time = 11

smoothSolver:  Solving for Uy, Initial residual = 0.00671994, Final residual = 0.000542268, No Iterations 2
smoothSolver:  Solving for Ux, Initial residual = 0.00324492, Final residual = 0.000270361, No Iterations 2
GAMG:  Solving for p, Initial residual = 0.125319, Final residual = 0.00390032, No Iterations 5
smoothSolver:  Solving for Uy, Initial residual = 0.00671994, Final residual = 0.000542268, No Iterations 2
GAMG:  Solving for p, Initial residual = 0.125319, Final residual = 0.00390032, No Iterations 5
GAMG:  Solving for p, Initial residual = 0.00371228, Final residual = 0.000178657, No Iterations 21
GAMG:  Solving for p, Initial residual = 0.00371228, Final residual = 0.000178657, No Iterations 21
GAMG:  Solving for p, Initial residual = 0.000235911, Final residual = 1.06901e-05, No Iterations 26
GAMG:  Solving for p, Initial residual = 0.000235911, Final residual = 1.06901e-05, No Iterations 26
GAMG:  Solving for p, Initial residual = 2.39055e-05, Final residual = 9.22598e-07, No Iterations 25
time step continuity errors : sum local = 7.08668e-05, global = 4.80098e-06, cumulative = -4.93832e-06
smoothSolver:  Solving for omega, Initial residual = 0.00625666, Final residual = 0.000507797, No Iterations 2
GAMG:  Solving for p, Initial residual = 2.39055e-05, Final residual = 9.22598e-07, No Iterations 25
time step continuity errors : sum local = 7.08668e-05, global = 4.80098e-06, cumulative = -4.93832e-06
smoothSolver:  Solving for k, Initial residual = 0.00113306, Final residual = 6.84864e-05, No Iterations 2
bounding k, min: -0.217499 max: 719.484 average: 2.65105
ExecutionTime = 15.33 s  ClockTime = 15 s

forceCoeffs forceCoeffs1 write:
    Coefficient	Total	Pressure	Viscous	Internal
    Cd:	12.7566	11.4066	1.35006	0
    Cd(f):	101.529	100.84	0.688507	0
    Cd(r):	-88.7721	-89.4337	0.661556	0
    Cl:	-190.301	-190.274	-0.0269516	0
    Cl(f):	-22.4012	-22.3912	-0.00997138	0
    Cl(r):	-167.9	-167.883	-0.0169802	0
    CmPitch:	72.7492	72.7457	0.00350441	0
    CmRoll:	95.1504	95.137	0.0134758	0
    CmYaw:	6.37831	5.70328	0.675032	0
    Cs:	-2.1397e-19	-2.26344e-19	1.23745e-20	0
    Cs(f):	6.37831	5.70328	0.675032	0
    Cs(r):	-6.37831	-5.70328	-0.675032	0

    writing force and moment coefficient files.

Time = 12

smoothSolver:  Solving for omega, Initial residual = 0.00625666, Final residual = 0.000507797, No Iterations 2
smoothSolver:  Solving for k, Initial residual = 0.00113306, Final residual = 6.84864e-05, No Iterations 2
bounding k, min: -0.217499 max: 719.484 average: 2.65105
ExecutionTime = 15.43 s  ClockTime = 16 s

forceCoeffs forceCoeffs1 write:
    Coefficient	Total	Pressure	Viscous	Internal
    Cd:	12.7566	11.4066	1.35006	0
    Cd(f):	101.529	100.84	0.688507	0
    Cd(r):	-88.7721	-89.4337	0.661556	0
    Cl:	-190.301	-190.274	-0.0269516	0
    Cl(f):	-22.4012	-22.3912	-0.00997138	0
    Cl(r):	-167.9	-167.883	-0.0169802	0
    CmPitch:	72.7492	72.7457	0.00350441	0
    CmRoll:	95.1504	95.137	0.0134758	0
    CmYaw:	6.37831	5.70328	0.675032	0
    Cs:	-2.1397e-19	-2.26344e-19	1.23745e-20	0
    Cs(f):	6.37831	5.70328	0.675032	0
    Cs(r):	-6.37831	-5.70328	-0.675032	0

    writing force and moment coefficient files.

Time = 12

smoothSolver:  Solving for Ux, Initial residual = 0.00323807, Final residual = 0.000270202, No Iterations 2
smoothSolver:  Solving for Uy, Initial residual = 0.00670145, Final residual = 0.000541413, No Iterations 2
smoothSolver:  Solving for Ux, Initial residual = 0.00323807, Final residual = 0.000270202, No Iterations 2
smoothSolver:  Solving for Uy, Initial residual = 0.00670145, Final residual = 0.000541413, No Iterations 2
GAMG:  Solving for p, Initial residual = 0.117623, Final residual = 0.00349424, No Iterations 5
GAMG:  Solving for p, Initial residual = 0.117623, Final residual = 0.00349424, No Iterations 5
GAMG:  Solving for p, Initial residual = 0.0034772, Final residual = 0.000147474, No Iterations 24
GAMG:  Solving for p, Initial residual = 0.0034772, Final residual = 0.000147474, No Iterations 24
GAMG:  Solving for p, Initial residual = 0.000222137, Final residual = 8.92091e-06, No Iterations 26
GAMG:  Solving for p, Initial residual = 0.000222137, Final residual = 8.92091e-06, No Iterations 26
GAMG:  Solving for p, Initial residual = 2.2195e-05, Final residual = 7.75685e-07, No Iterations 20
time step continuity errors : sum local = 5.5999e-05, global = 3.38636e-06, cumulative = -1.55195e-06
smoothSolver:  Solving for omega, Initial residual = 0.00625991, Final residual = 0.000511513, No Iterations 2
GAMG:  Solving for p, Initial residual = 2.2195e-05, Final residual = 7.75685e-07, No Iterations 20
time step continuity errors : sum local = 5.5999e-05, global = 3.38636e-06, cumulative = -1.55195e-06
smoothSolver:  Solving for k, Initial residual = 0.00114797, Final residual = 7.0086e-05, No Iterations 2
bounding k, min: -0.325935 max: 791.89 average: 2.6673
ExecutionTime = 17.03 s  ClockTime = 17 s

forceCoeffs forceCoeffs1 write:
    Coefficient	Total	Pressure	Viscous	Internal
    Cd:	12.4545	11.1037	1.35079	0
    Cd(f):	103.564	102.875	0.688975	0
    Cd(r):	-91.1093	-91.7712	0.661818	0
    Cl:	-194.673	-194.646	-0.0271576	0
    Cl(f):	-23.0488	-23.0387	-0.0100639	0
    Cl(r):	-171.624	-171.607	-0.0170937	0
    CmPitch:	74.2878	74.2843	0.00351491	0
    CmRoll:	97.3366	97.323	0.0135788	0
    CmYaw:	6.22724	5.55184	0.675397	0
    Cs:	-2.0735e-19	-2.18188e-19	1.0838e-20	0
    Cs(f):	6.22724	5.55184	0.675397	0
    Cs(r):	-6.22724	-5.55184	-0.675397	0

    writing force and moment coefficient files.

Time = 13

smoothSolver:  Solving for omega, Initial residual = 0.00625991, Final residual = 0.000511513, No Iterations 2
smoothSolver:  Solving for k, Initial residual = 0.00114797, Final residual = 7.0086e-05, No Iterations 2
bounding k, min: -0.325935 max: 791.89 average: 2.6673
ExecutionTime = 17.14 s  ClockTime = 17 s

forceCoeffs forceCoeffs1 write:
    Coefficient	Total	Pressure	Viscous	Internal
    Cd:	12.4545	11.1037	1.35079	0
    Cd(f):	103.564	102.875	0.688975	0
    Cd(r):	-91.1093	-91.7712	0.661818	0
    Cl:	-194.673	-194.646	-0.0271576	0
    Cl(f):	-23.0488	-23.0387	-0.0100639	0
    Cl(r):	-171.624	-171.607	-0.0170937	0
    CmPitch:	74.2878	74.2843	0.00351491	0
    CmRoll:	97.3366	97.323	0.0135788	0
    CmYaw:	6.22724	5.55184	0.675397	0
    Cs:	-2.0735e-19	-2.18188e-19	1.0838e-20	0
    Cs(f):	6.22724	5.55184	0.675397	0
    Cs(r):	-6.22724	-5.55184	-0.675397	0

    writing force and moment coefficient files.

Time = 13

smoothSolver:  Solving for Ux, Initial residual = 0.00323236, Final residual = 0.000270216, No Iterations 2
smoothSolver:  Solving for Uy, Initial residual = 0.00669277, Final residual = 0.000540912, No Iterations 2
smoothSolver:  Solving for Ux, Initial residual = 0.00323236, Final residual = 0.000270216, No Iterations 2
GAMG:  Solving for p, Initial residual = 0.114031, Final residual = 0.00349627, No Iterations 5
smoothSolver:  Solving for Uy, Initial residual = 0.00669277, Final residual = 0.000540912, No Iterations 2
GAMG:  Solving for p, Initial residual = 0.114031, Final residual = 0.00349627, No Iterations 5
GAMG:  Solving for p, Initial residual = 0.00354119, Final residual = 0.000176644, No Iterations 22
GAMG:  Solving for p, Initial residual = 0.00354119, Final residual = 0.000176644, No Iterations 22
GAMG:  Solving for p, Initial residual = 0.000293444, Final residual = 1.39003e-05, No Iterations 22
GAMG:  Solving for p, Initial residual = 0.000293444, Final residual = 1.39003e-05, No Iterations 22
GAMG:  Solving for p, Initial residual = 3.40085e-05, Final residual = 1.44207e-06, No Iterations 24
time step continuity errors : sum local = 8.82374e-05, global = 7.39598e-06, cumulative = 5.84402e-06
smoothSolver:  Solving for omega, Initial residual = 0.00621639, Final residual = 0.000503735, No Iterations 2
GAMG:  Solving for p, Initial residual = 3.40085e-05, Final residual = 1.44207e-06, No Iterations 24
time step continuity errors : sum local = 8.82374e-05, global = 7.39598e-06, cumulative = 5.84402e-06
smoothSolver:  Solving for k, Initial residual = 0.00117353, Final residual = 7.10519e-05, No Iterations 2
bounding k, min: -0.483336 max: 776.312 average: 2.68417
ExecutionTime = 18.58 s  ClockTime = 19 s

forceCoeffs forceCoeffs1 write:
    Coefficient	Total	Pressure	Viscous	Internal
    Cd:	14.7477	13.3959	1.35178	0
    Cd(f):	106.449	105.759	0.689557	0
    Cd(r):	-91.7009	-92.3631	0.662218	0
    Cl:	-198.149	-198.122	-0.0273389	0
    Cl(f):	-23.4218	-23.4117	-0.0101421	0
    Cl(r):	-174.728	-174.71	-0.0171968	0
    CmPitch:	75.6529	75.6493	0.00352733	0
    CmRoll:	99.0747	99.061	0.0136694	0
    CmYaw:	7.37384	6.69795	0.675888	0
    Cs:	-2.30606e-19	-2.42735e-19	1.21293e-20	0
    Cs(f):	7.37384	6.69795	0.675888	0
    Cs(r):	-7.37384	-6.69795	-0.675888	0

    writing force and moment coefficient files.

Time = 14

smoothSolver:  Solving for omega, Initial residual = 0.00621639, Final residual = 0.000503735, No Iterations 2
smoothSolver:  Solving for k, Initial residual = 0.00117353, Final residual = 7.10519e-05, No Iterations 2
bounding k, min: -0.483336 max: 776.312 average: 2.68417
ExecutionTime = 18.67 s  ClockTime = 19 s

smoothSolver:  Solving for Ux, Initial residual = 0.00322976, Final residual = 0.000269626, No Iterations 2
smoothSolver:  Solving for Uy, Initial residual = 0.00669033, Final residual = 0.000539419, No Iterations 2
forceCoeffs forceCoeffs1 write:
    Coefficient	Total	Pressure	Viscous	Internal
    Cd:	14.7477	13.3959	1.35178	0
    Cd(f):	106.449	105.759	0.689557	0
    Cd(r):	-91.7009	-92.3631	0.662218	0
    Cl:	-198.149	-198.122	-0.0273389	0
    Cl(f):	-23.4218	-23.4117	-0.0101421	0
    Cl(r):	-174.728	-174.71	-0.0171968	0
    CmPitch:	75.6529	75.6493	0.00352733	0
    CmRoll:	99.0747	99.061	0.0136694	0
    CmYaw:	7.37384	6.69795	0.675888	0
    Cs:	-2.30606e-19	-2.42735e-19	1.21293e-20	0
    Cs(f):	7.37384	6.69795	0.675888	0
    Cs(r):	-7.37384	-6.69795	-0.675888	0

    writing force and moment coefficient files.

Time = 14

GAMG:  Solving for p, Initial residual = 0.116863, Final residual = 0.00358468, No Iterations 5
smoothSolver:  Solving for Ux, Initial residual = 0.00322976, Final residual = 0.000269626, No Iterations 2
smoothSolver:  Solving for Uy, Initial residual = 0.00669033, Final residual = 0.000539419, No Iterations 2
GAMG:  Solving for p, Initial residual = 0.116863, Final residual = 0.00358468, No Iterations 5
GAMG:  Solving for p, Initial residual = 0.00382774, Final residual = 0.000153281, No Iterations 24
GAMG:  Solving for p, Initial residual = 0.00382774, Final residual = 0.000153281, No Iterations 24
GAMG:  Solving for p, Initial residual = 0.000316629, Final residual = 1.57692e-05, No Iterations 20
GAMG:  Solving for p, Initial residual = 0.000316629, Final residual = 1.57692e-05, No Iterations 20
GAMG:  Solving for p, Initial residual = 4.12966e-05, Final residual = 1.88578e-06, No Iterations 24
time step continuity errors : sum local = 9.79081e-05, global = 3.86428e-06, cumulative = 9.7083e-06
smoothSolver:  Solving for omega, Initial residual = 0.00624171, Final residual = 0.000500777, No Iterations 2
GAMG:  Solving for p, Initial residual = 4.12966e-05, Final residual = 1.88578e-06, No Iterations 24
time step continuity errors : sum local = 9.79081e-05, global = 3.86428e-06, cumulative = 9.7083e-06
smoothSolver:  Solving for k, Initial residual = 0.00121635, Final residual = 7.03485e-05, No Iterations 2
bounding k, min: -0.71082 max: 793.157 average: 2.70165
ExecutionTime = 20.11 s  ClockTime = 20 s

forceCoeffs forceCoeffs1 write:
    Coefficient	Total	Pressure	Viscous	Internal
    Cd:	19.2491	17.8959	1.35328	0
    Cd(f):	109.905	109.215	0.690391	0
    Cd(r):	-90.6562	-91.3191	0.662885	0
    Cl:	-200.561	-200.534	-0.0275054	0
    Cl(f):	-23.5417	-23.5315	-0.0102057	0
    Cl(r):	-177.02	-177.002	-0.0172997	0
    CmPitch:	76.739	76.7355	0.00354702	0
    CmRoll:	100.281	100.267	0.0137527	0
    CmYaw:	9.62457	8.94793	0.676638	0
    Cs:	-2.75051e-19	-2.89547e-19	1.44956e-20	0
    Cs(f):	9.62457	8.94793	0.676638	0
    Cs(r):	-9.62457	-8.94793	-0.676638	0

    writing force and moment coefficient files.

Time = 15

smoothSolver:  Solving for omega, Initial residual = 0.00624171, Final residual = 0.000500777, No Iterations 2
smoothSolver:  Solving for k, Initial residual = 0.00121635, Final residual = 7.03485e-05, No Iterations 2
bounding k, min: -0.71082 max: 793.157 average: 2.70165
ExecutionTime = 20.21 s  ClockTime = 20 s

forceCoeffs forceCoeffs1 write:
    Coefficient	Total	Pressure	Viscous	Internal
    Cd:	19.2491	17.8959	1.35328	0
    Cd(f):	109.905	109.215	0.690391	0
    Cd(r):	-90.6562	-91.3191	0.662885	0
    Cl:	-200.561	-200.534	-0.0275054	0
    Cl(f):	-23.5417	-23.5315	-0.0102057	0
    Cl(r):	-177.02	-177.002	-0.0172997	0
    CmPitch:	76.739	76.7355	0.00354702	0
    CmRoll:	100.281	100.267	0.0137527	0
    CmYaw:	9.62457	8.94793	0.676638	0
    Cs:	-2.75051e-19	-2.89547e-19	1.44956e-20	0
    Cs(f):	9.62457	8.94793	0.676638	0
    Cs(r):	-9.62457	-8.94793	-0.676638	0

    writing force and moment coefficient files.

Time = 15

smoothSolver:  Solving for Ux, Initial residual = 0.00321794, Final residual = 0.000269848, No Iterations 2
smoothSolver:  Solving for Uy, Initial residual = 0.00666703, Final residual = 0.000539138, No Iterations 2
smoothSolver:  Solving for Ux, Initial residual = 0.00321794, Final residual = 0.000269848, No Iterations 2
smoothSolver:  Solving for Uy, Initial residual = 0.00666703, Final residual = 0.000539138, No Iterations 2
GAMG:  Solving for p, Initial residual = 0.12624, Final residual = 0.00378275, No Iterations 5
GAMG:  Solving for p, Initial residual = 0.12624, Final residual = 0.00378275, No Iterations 5
GAMG:  Solving for p, Initial residual = 0.00416814, Final residual = 0.000205283, No Iterations 22
GAMG:  Solving for p, Initial residual = 0.00416814, Final residual = 0.000205283, No Iterations 22
GAMG:  Solving for p, Initial residual = 0.000382443, Final residual = 1.50845e-05, No Iterations 20
GAMG:  Solving for p, Initial residual = 0.000382443, Final residual = 1.50845e-05, No Iterations 20
GAMG:  Solving for p, Initial residual = 4.69788e-05, Final residual = 1.95842e-06, No Iterations 21
time step continuity errors : sum local = 9.10184e-05, global = -5.10595e-06, cumulative = 4.60236e-06
smoothSolver:  Solving for omega, Initial residual = 0.00622948, Final residual = 0.000500105, No Iterations 2
GAMG:  Solving for p, Initial residual = 4.69788e-05, Final residual = 1.95842e-06, No Iterations 21
time step continuity errors : sum local = 9.10184e-05, global = -5.10595e-06, cumulative = 4.60236e-06
smoothSolver:  Solving for k, Initial residual = 0.00128607, Final residual = 7.24102e-05, No Iterations 2
bounding k, min: -1.03388 max: 825.523 average: 2.71996
ExecutionTime = 21.48 s  ClockTime = 22 s

forceCoeffs forceCoeffs1 write:
    Coefficient	Total	Pressure	Viscous	Internal
    Cd:	24.6126	23.2572	1.35542	0
    Cd(f):	113.526	112.835	0.691535	0
    Cd(r):	-88.9135	-89.5774	0.663881	0
    Cl:	-202.44	-202.412	-0.0276538	0
    Cl(f):	-23.504	-23.4938	-0.010247	0
    Cl(r):	-178.936	-178.918	-0.0174069	0
    CmPitch:	77.7158	77.7122	0.00357995	0
    CmRoll:	101.22	101.206	0.0138269	0
    CmYaw:	12.3063	11.6286	0.677708	0
    Cs:	-3.28551e-19	-3.45322e-19	1.67709e-20	0
    Cs(f):	12.3063	11.6286	0.677708	0
    Cs(r):	-12.3063	-11.6286	-0.677708	0

    writing force and moment coefficient files.

Time = 16

smoothSolver:  Solving for omega, Initial residual = 0.00622948, Final residual = 0.000500105, No Iterations 2
smoothSolver:  Solving for k, Initial residual = 0.00128607, Final residual = 7.24102e-05, No Iterations 2
bounding k, min: -1.03388 max: 825.523 average: 2.71996
ExecutionTime = 21.54 s  ClockTime = 22 s

forceCoeffs forceCoeffs1 write:
    Coefficient	Total	Pressure	Viscous	Internal
    Cd:	24.6126	23.2572	1.35542	0
    Cd(f):	113.526	112.835	0.691535	0
    Cd(r):	-88.9135	-89.5774	0.663881	0
    Cl:	-202.44	-202.412	-0.0276538	0
    Cl(f):	-23.504	-23.4938	-0.010247	0
    Cl(r):	-178.936	-178.918	-0.0174069	0
    CmPitch:	77.7158	77.7122	0.00357995	0
    CmRoll:	101.22	101.206	0.0138269	0
    CmYaw:	12.3063	11.6286	0.677708	0
    Cs:	-3.28551e-19	-3.45322e-19	1.67709e-20	0
    Cs(f):	12.3063	11.6286	0.677708	0
    Cs(r):	-12.3063	-11.6286	-0.677708	0

    writing force and moment coefficient files.

Time = 16

smoothSolver:  Solving for Ux, Initial residual = 0.0032171, Final residual = 0.000269451, No Iterations 2
smoothSolver:  Solving for Uy, Initial residual = 0.00665572, Final residual = 0.000537237, No Iterations 2
smoothSolver:  Solving for Ux, Initial residual = 0.0032171, Final residual = 0.000269451, No Iterations 2
smoothSolver:  Solving for Uy, Initial residual = 0.00665572, Final residual = 0.000537237, No Iterations 2
GAMG:  Solving for p, Initial residual = 0.140296, Final residual = 0.00396387, No Iterations 5
GAMG:  Solving for p, Initial residual = 0.140296, Final residual = 0.00396387, No Iterations 5
GAMG:  Solving for p, Initial residual = 0.0043804, Final residual = 0.000201806, No Iterations 22
GAMG:  Solving for p, Initial residual = 0.0043804, Final residual = 0.000201806, No Iterations 22
GAMG:  Solving for p, Initial residual = 0.000360522, Final residual = 1.78079e-05, No Iterations 18
GAMG:  Solving for p, Initial residual = 0.000360522, Final residual = 1.78079e-05, No Iterations 18
GAMG:  Solving for p, Initial residual = 4.69866e-05, Final residual = 1.69287e-06, No Iterations 23
time step continuity errors : sum local = 7.49055e-05, global = -5.66287e-06, cumulative = -1.06051e-06
smoothSolver:  Solving for omega, Initial residual = 0.0061944, Final residual = 0.000501461, No Iterations 2
smoothSolver:  Solving for k, Initial residual = 0.00138457, Final residual = 7.19288e-05, No Iterations 2
bounding k, min: -1.4791 max: 807.713 average: 2.7392
ExecutionTime = 23.25 s  ClockTime = 23 s

forceCoeffs forceCoeffs1 write:
    Coefficient	Total	Pressure	Viscous	Internal
    Cd:	29.4193	28.0612	1.35817	0
    Cd(f):	116.964	116.271	0.692983	0
    Cd(r):	-87.5451	-88.2103	0.665182	0
    Cl:	-204.51	-204.482	-0.0278006	0
    Cl(f):	-23.447	-23.4367	-0.0102744	0
    Cl(r):	-181.062	-181.045	-0.0175262	0
    CmPitch:	78.8077	78.8041	0.00362592	0
    CmRoll:	102.255	102.241	0.0139003	0
    CmYaw:	14.7097	14.0306	0.679083	0
    Cs:	-3.78335e-19	-3.9548e-19	1.71453e-20	0
    Cs(f):	14.7097	14.0306	0.679083	0
    Cs(r):	-14.7097	-14.0306	-0.679083	0

    writing force and moment coefficient files.

Time = 17

GAMG:  Solving for p, Initial residual = 4.69866e-05, Final residual = 1.69287e-06, No Iterations 23
time step continuity errors : sum local = 7.49055e-05, global = -5.66287e-06, cumulative = -1.06051e-06
smoothSolver:  Solving for omega, Initial residual = 0.0061944, Final residual = 0.000501461, No Iterations 2
smoothSolver:  Solving for Ux, Initial residual = 0.00321133, Final residual = 0.000269083, No Iterations 2
smoothSolver:  Solving for Uy, Initial residual = 0.00662984, Final residual = 0.000535574, No Iterations 2
smoothSolver:  Solving for k, Initial residual = 0.00138457, Final residual = 7.19288e-05, No Iterations 2
bounding k, min: -1.4791 max: 807.713 average: 2.7392
ExecutionTime = 23.44 s  ClockTime = 24 s

forceCoeffs forceCoeffs1 write:
    Coefficient	Total	Pressure	Viscous	Internal
    Cd:	29.4193	28.0612	1.35817	0
    Cd(f):	116.964	116.271	0.692983	0
    Cd(r):	-87.5451	-88.2103	0.665182	0
    Cl:	-204.51	-204.482	-0.0278006	0
    Cl(f):	-23.447	-23.4367	-0.0102744	0
    Cl(r):	-181.062	-181.045	-0.0175262	0
    CmPitch:	78.8077	78.8041	0.00362592	0
    CmRoll:	102.255	102.241	0.0139003	0
    CmYaw:	14.7097	14.0306	0.679083	0
    Cs:	-3.78335e-19	-3.9548e-19	1.71453e-20	0
    Cs(f):	14.7097	14.0306	0.679083	0
    Cs(r):	-14.7097	-14.0306	-0.679083	0

    writing force and moment coefficient files.

Time = 17

GAMG:  Solving for p, Initial residual = 0.155623, Final residual = 0.00429367, No Iterations 5
smoothSolver:  Solving for Ux, Initial residual = 0.00321133, Final residual = 0.000269083, No Iterations 2
smoothSolver:  Solving for Uy, Initial residual = 0.00662984, Final residual = 0.000535574, No Iterations 2
GAMG:  Solving for p, Initial residual = 0.155623, Final residual = 0.00429367, No Iterations 5
GAMG:  Solving for p, Initial residual = 0.0046184, Final residual = 0.000193119, No Iterations 22
GAMG:  Solving for p, Initial residual = 0.0046184, Final residual = 0.000193119, No Iterations 22
GAMG:  Solving for p, Initial residual = 0.000325871, Final residual = 1.2838e-05, No Iterations 20
GAMG:  Solving for p, Initial residual = 0.000325871, Final residual = 1.2838e-05, No Iterations 20
GAMG:  Solving for p, Initial residual = 3.66637e-05, Final residual = 1.47939e-06, No Iterations 19
time step continuity errors : sum local = 6.89634e-05, global = -4.95243e-06, cumulative = -6.01294e-06
smoothSolver:  Solving for omega, Initial residual = 0.00620107, Final residual = 0.000493672, No Iterations 2
smoothSolver:  Solving for k, Initial residual = 0.00154787, Final residual = 7.34739e-05, No Iterations 2
bounding k, min: -2.01886 max: 859.188 average: 2.76013
ExecutionTime = 24.63 s  ClockTime = 25 s

forceCoeffs forceCoeffs1 write:
    Coefficient	Total	Pressure	Viscous	Internal
    Cd:	32.9647	31.6033	1.36141	0
    Cd(f):	120.056	119.361	0.69469	0
    Cd(r):	-87.0912	-87.7579	0.666717	0
    Cl:	-207.147	-207.119	-0.0279732	0
    Cl(f):	-23.5071	-23.4968	-0.0103019	0
    Cl(r):	-183.64	-183.622	-0.0176713	0
    CmPitch:	80.0664	80.0627	0.00368471	0
    CmRoll:	103.574	103.56	0.0139866	0
    CmYaw:	16.4823	15.8016	0.680703	0
    Cs:	-4.13586e-19	-4.33517e-19	1.99311e-20	0
    Cs(f):	16.4823	15.8016	0.680703	0
    Cs(r):	-16.4823	-15.8016	-0.680703	0

    writing force and moment coefficient files.

Time = 18

GAMG:  Solving for p, Initial residual = 3.66637e-05, Final residual = 1.47939e-06, No Iterations 19
time step continuity errors : sum local = 6.89634e-05, global = -4.95243e-06, cumulative = -6.01294e-06
smoothSolver:  Solving for Ux, Initial residual = 0.00321776, Final residual = 0.00026925, No Iterations 2
smoothSolver:  Solving for Uy, Initial residual = 0.0066255, Final residual = 0.000535286, No Iterations 2
smoothSolver:  Solving for omega, Initial residual = 0.00620107, Final residual = 0.000493672, No Iterations 2
smoothSolver:  Solving for k, Initial residual = 0.00154787, Final residual = 7.34739e-05, No Iterations 2
bounding k, min: -2.01886 max: 859.188 average: 2.76013
ExecutionTime = 24.77 s  ClockTime = 25 s

forceCoeffs forceCoeffs1 write:
    Coefficient	Total	Pressure	Viscous	Internal
    Cd:	32.9647	31.6033	1.36141	0
    Cd(f):	120.056	119.361	0.69469	0
    Cd(r):	-87.0912	-87.7579	0.666717	0
    Cl:	-207.147	-207.119	-0.0279732	0
    Cl(f):	-23.5071	-23.4968	-0.0103019	0
    Cl(r):	-183.64	-183.622	-0.0176713	0
    CmPitch:	80.0664	80.0627	0.00368471	0
    CmRoll:	103.574	103.56	0.0139866	0
    CmYaw:	16.4823	15.8016	0.680703	0
    Cs:	-4.13586e-19	-4.33517e-19	1.99311e-20	0
    Cs(f):	16.4823	15.8016	0.680703	0
    Cs(r):	-16.4823	-15.8016	-0.680703	0

    writing force and moment coefficient files.

Time = 18

GAMG:  Solving for p, Initial residual = 0.176951, Final residual = 0.00494249, No Iterations 5
smoothSolver:  Solving for Ux, Initial residual = 0.00321776, Final residual = 0.00026925, No Iterations 2
smoothSolver:  Solving for Uy, Initial residual = 0.0066255, Final residual = 0.000535286, No Iterations 2
GAMG:  Solving for p, Initial residual = 0.176951, Final residual = 0.00494249, No Iterations 5
GAMG:  Solving for p, Initial residual = 0.00511999, Final residual = 0.000202802, No Iterations 18
GAMG:  Solving for p, Initial residual = 0.00511999, Final residual = 0.000202802, No Iterations 18
GAMG:  Solving for p, Initial residual = 0.000308463, Final residual = 1.28186e-05, No Iterations 18
GAMG:  Solving for p, Initial residual = 0.000308463, Final residual = 1.28186e-05, No Iterations 18
GAMG:  Solving for p, Initial residual = 3.3943e-05, Final residual = 1.13914e-06, No Iterations 19
time step continuity errors : sum local = 5.30168e-05, global = -3.69566e-06, cumulative = -9.70859e-06
smoothSolver:  Solving for omega, Initial residual = 0.00614697, Final residual = 0.000493246, No Iterations 2
smoothSolver:  Solving for k, Initial residual = 0.00177732, Final residual = 7.64884e-05, No Iterations 2
bounding k, min: -2.6611 max: 833.2 average: 2.78287
ExecutionTime = 25.83 s  ClockTime = 26 s

forceCoeffs forceCoeffs1 write:
    Coefficient	Total	Pressure	Viscous	Internal
    Cd:	35.2603	33.8953	1.36499	0
    Cd(f):	122.904	122.207	0.696585	0
    Cd(r):	-87.6435	-88.3119	0.668404	0
    Cl:	-210.547	-210.519	-0.0281807	0
    Cl(f):	-23.7301	-23.7198	-0.0103344	0
    Cl(r):	-186.817	-186.799	-0.0178463	0
    CmPitch:	81.5435	81.5398	0.00375596	0
    CmRoll:	105.274	105.26	0.0140904	0
    CmYaw:	17.6302	16.9477	0.682495	0
    Cs:	-4.36311e-19	-4.54901e-19	1.85895e-20	0
    Cs(f):	17.6302	16.9477	0.682495	0
    Cs(r):	-17.6302	-16.9477	-0.682495	0

    writing force and moment coefficient files.

Time = 19

GAMG:  Solving for p, Initial residual = 3.3943e-05, Final residual = 1.13914e-06, No Iterations 19
time step continuity errors : sum local = 5.30168e-05, global = -3.69566e-06, cumulative = -9.70859e-06
smoothSolver:  Solving for Ux, Initial residual = 0.00321414, Final residual = 0.000269475, No Iterations 2
smoothSolver:  Solving for Uy, Initial residual = 0.00660128, Final residual = 0.000534155, No Iterations 2
smoothSolver:  Solving for omega, Initial residual = 0.00614697, Final residual = 0.000493246, No Iterations 2
smoothSolver:  Solving for k, Initial residual = 0.00177732, Final residual = 7.64884e-05, No Iterations 2
bounding k, min: -2.6611 max: 833.2 average: 2.78287
ExecutionTime = 25.97 s  ClockTime = 26 s

forceCoeffs forceCoeffs1 write:
    Coefficient	Total	Pressure	Viscous	Internal
    Cd:	35.2603	33.8953	1.36499	0
    Cd(f):	122.904	122.207	0.696585	0
    Cd(r):	-87.6435	-88.3119	0.668404	0
    Cl:	-210.547	-210.519	-0.0281807	0
    Cl(f):	-23.7301	-23.7198	-0.0103344	0
    Cl(r):	-186.817	-186.799	-0.0178463	0
    CmPitch:	81.5435	81.5398	0.00375596	0
    CmRoll:	105.274	105.26	0.0140904	0
    CmYaw:	17.6302	16.9477	0.682495	0
    Cs:	-4.36311e-19	-4.54901e-19	1.85895e-20	0
    Cs(f):	17.6302	16.9477	0.682495	0
    Cs(r):	-17.6302	-16.9477	-0.682495	0

    writing force and moment coefficient files.

Time = 19

GAMG:  Solving for p, Initial residual = 0.188877, Final residual = 0.00614398, No Iterations 5
smoothSolver:  Solving for Ux, Initial residual = 0.00321414, Final residual = 0.000269475, No Iterations 2
smoothSolver:  Solving for Uy, Initial residual = 0.00660128, Final residual = 0.000534155, No Iterations 2
GAMG:  Solving for p, Initial residual = 0.188877, Final residual = 0.00614398, No Iterations 5
GAMG:  Solving for p, Initial residual = 0.00610835, Final residual = 0.000280597, No Iterations 20
GAMG:  Solving for p, Initial residual = 0.00610835, Final residual = 0.000280597, No Iterations 20
GAMG:  Solving for p, Initial residual = 0.000408693, Final residual = 1.53851e-05, No Iterations 20
GAMG:  Solving for p, Initial residual = 0.000408693, Final residual = 1.53851e-05, No Iterations 20
GAMG:  Solving for p, Initial residual = 3.81319e-05, Final residual = 1.88869e-06, No Iterations 19
time step continuity errors : sum local = 9.38337e-05, global = -6.52833e-06, cumulative = -1.62369e-05
smoothSolver:  Solving for omega, Initial residual = 0.00617798, Final residual = 0.000497452, No Iterations 2
smoothSolver:  Solving for k, Initial residual = 0.00199839, Final residual = 7.82003e-05, No Iterations 2
bounding k, min: -0.00247012 max: 874.208 average: 2.80141
ExecutionTime = 27.1 s  ClockTime = 27 s

forceCoeffs forceCoeffs1 write:
    Coefficient	Total	Pressure	Viscous	Internal
    Cd:	37.6602	36.2913	1.36892	0
    Cd(f):	125.798	125.099	0.698662	0
    Cd(r):	-88.1374	-88.8076	0.67026	0
    Cl:	-213.935	-213.907	-0.028402	0
    Cl(f):	-24.042	-24.0317	-0.0103656	0
    Cl(r):	-189.893	-189.875	-0.0180364	0
    CmPitch:	82.9254	82.9216	0.00383542	0
    CmRoll:	106.967	106.953	0.014201	0
    CmYaw:	18.8301	18.1457	0.684461	0
    Cs:	-4.57695e-19	-4.78565e-19	2.08699e-20	0
    Cs(f):	18.8301	18.1457	0.684461	0
    Cs(r):	-18.8301	-18.1457	-0.684461	0

    writing force and moment coefficient files.

Time = 20

GAMG:  Solving for p, Initial residual = 3.81319e-05, Final residual = 1.88869e-06, No Iterations 19
time step continuity errors : sum local = 9.38337e-05, global = -6.52833e-06, cumulative = -1.62369e-05
smoothSolver:  Solving for Ux, Initial residual = 0.00321747, Final residual = 0.000269098, No Iterations 2
smoothSolver:  Solving for omega, Initial residual = 0.00617798, Final residual = 0.000497452, No Iterations 2
smoothSolver:  Solving for Uy, Initial residual = 0.00658485, Final residual = 0.000532254, No Iterations 2
smoothSolver:  Solving for k, Initial residual = 0.00199839, Final residual = 7.82003e-05, No Iterations 2
bounding k, min: -0.00247012 max: 874.208 average: 2.80141
ExecutionTime = 27.24 s  ClockTime = 27 s

forceCoeffs forceCoeffs1 write:
    Coefficient	Total	Pressure	Viscous	Internal
    Cd:	37.6602	36.2913	1.36892	0
    Cd(f):	125.798	125.099	0.698662	0
    Cd(r):	-88.1374	-88.8076	0.67026	0
    Cl:	-213.935	-213.907	-0.028402	0
    Cl(f):	-24.042	-24.0317	-0.0103656	0
    Cl(r):	-189.893	-189.875	-0.0180364	0
    CmPitch:	82.9254	82.9216	0.00383542	0
    CmRoll:	106.967	106.953	0.014201	0
    CmYaw:	18.8301	18.1457	0.684461	0
    Cs:	-4.57695e-19	-4.78565e-19	2.08699e-20	0
    Cs(f):	18.8301	18.1457	0.684461	0
    Cs(r):	-18.8301	-18.1457	-0.684461	0

    writing force and moment coefficient files.

Time = 20

GAMG:  Solving for p, Initial residual = 0.200764, Final residual = 0.00611631, No Iterations 5
smoothSolver:  Solving for Ux, Initial residual = 0.00321747, Final residual = 0.000269098, No Iterations 2
smoothSolver:  Solving for Uy, Initial residual = 0.00658485, Final residual = 0.000532254, No Iterations 2
GAMG:  Solving for p, Initial residual = 0.200764, Final residual = 0.00611631, No Iterations 5
GAMG:  Solving for p, Initial residual = 0.00624053, Final residual = 0.000310503, No Iterations 20
GAMG:  Solving for p, Initial residual = 0.00624053, Final residual = 0.000310503, No Iterations 20
GAMG:  Solving for p, Initial residual = 0.000435179, Final residual = 1.97822e-05, No Iterations 20
GAMG:  Solving for p, Initial residual = 0.000435179, Final residual = 1.97822e-05, No Iterations 20
GAMG:  Solving for p, Initial residual = 4.15374e-05, Final residual = 1.71145e-06, No Iterations 20
time step continuity errors : sum local = 8.25705e-05, global = -6.15397e-06, cumulative = -2.23909e-05
smoothSolver:  Solving for omega, Initial residual = 0.00613991, Final residual = 0.000493296, No Iterations 2
smoothSolver:  Solving for k, Initial residual = 0.00187836, Final residual = 7.83027e-05, No Iterations 2
bounding k, min: -0.0690913 max: 971.163 average: 2.82255
ExecutionTime = 28.36 s  ClockTime = 28 s

forceCoeffs forceCoeffs1 write:
    Coefficient	Total	Pressure	Viscous	Internal
    Cd:	39.7542	38.3811	1.37319	0
    Cd(f):	128.295	127.594	0.700911	0
    Cd(r):	-88.5404	-89.2126	0.672276	0
    Cl:	-216.835	-216.806	-0.0286347	0
    Cl(f):	-24.462	-24.4516	-0.0103986	0
    Cl(r):	-192.373	-192.355	-0.0182361	0
    CmPitch:	83.9555	83.9516	0.00391878	0
    CmRoll:	108.417	108.403	0.0143173	0
    CmYaw:	19.8771	19.1905	0.686594	0
    Cs:	-4.71571e-19	-4.93649e-19	2.20785e-20	0
    Cs(f):	19.8771	19.1905	0.686594	0
    Cs(r):	-19.8771	-19.1905	-0.686594	0

    writing force and moment coefficient files.

Time = 21

GAMG:  Solving for p, Initial residual = 4.15374e-05, Final residual = 1.71145e-06, No Iterations 20
time step continuity errors : sum local = 8.25705e-05, global = -6.15397e-06, cumulative = -2.23909e-05
smoothSolver:  Solving for omega, Initial residual = 0.00613991, Final residual = 0.000493296, No Iterations 2
smoothSolver:  Solving for Ux, Initial residual = 0.00322117, Final residual = 0.000269451, No Iterations 2
smoothSolver:  Solving for Uy, Initial residual = 0.00657658, Final residual = 0.000532124, No Iterations 2
smoothSolver:  Solving for k, Initial residual = 0.00187836, Final residual = 7.83027e-05, No Iterations 2
bounding k, min: -0.0690913 max: 971.163 average: 2.82255
ExecutionTime = 28.48 s  ClockTime = 29 s

forceCoeffs forceCoeffs1 write:
    Coefficient	Total	Pressure	Viscous	Internal
    Cd:	39.7542	38.3811	1.37319	0
    Cd(f):	128.295	127.594	0.700911	0
    Cd(r):	-88.5404	-89.2126	0.672276	0
    Cl:	-216.835	-216.806	-0.0286347	0
    Cl(f):	-24.462	-24.4516	-0.0103986	0
    Cl(r):	-192.373	-192.355	-0.0182361	0
    CmPitch:	83.9555	83.9516	0.00391878	0
    CmRoll:	108.417	108.403	0.0143173	0
    CmYaw:	19.8771	19.1905	0.686594	0
    Cs:	-4.71571e-19	-4.93649e-19	2.20785e-20	0
    Cs(f):	19.8771	19.1905	0.686594	0
    Cs(r):	-19.8771	-19.1905	-0.686594	0

    writing force and moment coefficient files.

Time = 21

GAMG:  Solving for p, Initial residual = 0.199797, Final residual = 0.00573314, No Iterations 5
smoothSolver:  Solving for Ux, Initial residual = 0.00322117, Final residual = 0.000269451, No Iterations 2
smoothSolver:  Solving for Uy, Initial residual = 0.00657658, Final residual = 0.000532124, No Iterations 2
GAMG:  Solving for p, Initial residual = 0.199797, Final residual = 0.00573314, No Iterations 5
GAMG:  Solving for p, Initial residual = 0.00600772, Final residual = 0.000296854, No Iterations 18
GAMG:  Solving for p, Initial residual = 0.00600772, Final residual = 0.000296854, No Iterations 18
GAMG:  Solving for p, Initial residual = 0.000386325, Final residual = 1.78168e-05, No Iterations 28
GAMG:  Solving for p, Initial residual = 0.000386325, Final residual = 1.78168e-05, No Iterations 28
GAMG:  Solving for p, Initial residual = 3.5806e-05, Final residual = 1.63953e-06, No Iterations 16
time step continuity errors : sum local = 7.58464e-05, global = 4.6404e-06, cumulative = -1.77505e-05
smoothSolver:  Solving for omega, Initial residual = 0.00615409, Final residual = 0.000487306, No Iterations 2
smoothSolver:  Solving for k, Initial residual = 0.00191962, Final residual = 7.65823e-05, No Iterations 2
bounding k, min: -0.00393081 max: 1180.06 average: 2.84553
ExecutionTime = 29.65 s  ClockTime = 30 s

forceCoeffs forceCoeffs1 write:
    Coefficient	Total	Pressure	Viscous	Internal
    Cd:	40.5159	39.1382	1.37766	0
    Cd(f):	130.3	129.596	0.703277	0
    Cd(r):	-89.7837	-90.4581	0.674378	0
    Cl:	-220.083	-220.054	-0.0288985	0
    Cl(f):	-25.0291	-25.0187	-0.0104489	0
    Cl(r):	-195.054	-195.036	-0.0184497	0
    CmPitch:	85.0126	85.0086	0.00400042	0
    CmRoll:	110.042	110.027	0.0144493	0
    CmYaw:	20.2579	19.5691	0.688828	0
    Cs:	-4.64457e-19	-4.86519e-19	2.20615e-20	0
    Cs(f):	20.2579	19.5691	0.688828	0
    Cs(r):	-20.2579	-19.5691	-0.688828	0

    writing force and moment coefficient files.

Time = 22

GAMG:  Solving for p, Initial residual = 3.5806e-05, Final residual = 1.63953e-06, No Iterations 16
time step continuity errors : sum local = 7.58464e-05, global = 4.6404e-06, cumulative = -1.77505e-05
smoothSolver:  Solving for omega, Initial residual = 0.00615409, Final residual = 0.000487306, No Iterations 2
smoothSolver:  Solving for Ux, Initial residual = 0.00322158, Final residual = 0.000269389, No Iterations 2
smoothSolver:  Solving for Uy, Initial residual = 0.00657078, Final residual = 0.000530877, No Iterations 2
smoothSolver:  Solving for k, Initial residual = 0.00191962, Final residual = 7.65823e-05, No Iterations 2
bounding k, min: -0.00393081 max: 1180.06 average: 2.84553
ExecutionTime = 29.77 s  ClockTime = 30 s

forceCoeffs forceCoeffs1 write:
    Coefficient	Total	Pressure	Viscous	Internal
    Cd:	40.5159	39.1382	1.37766	0
    Cd(f):	130.3	129.596	0.703277	0
    Cd(r):	-89.7837	-90.4581	0.674378	0
    Cl:	-220.083	-220.054	-0.0288985	0
    Cl(f):	-25.0291	-25.0187	-0.0104489	0
    Cl(r):	-195.054	-195.036	-0.0184497	0
    CmPitch:	85.0126	85.0086	0.00400042	0
    CmRoll:	110.042	110.027	0.0144493	0
    CmYaw:	20.2579	19.5691	0.688828	0
    Cs:	-4.64457e-19	-4.86519e-19	2.20615e-20	0
    Cs(f):	20.2579	19.5691	0.688828	0
    Cs(r):	-20.2579	-19.5691	-0.688828	0

    writing force and moment coefficient files.

Time = 22

GAMG:  Solving for p, Initial residual = 0.191986, Final residual = 0.0056013, No Iterations 5
smoothSolver:  Solving for Ux, Initial residual = 0.00322158, Final residual = 0.000269389, No Iterations 2
smoothSolver:  Solving for Uy, Initial residual = 0.00657078, Final residual = 0.000530877, No Iterations 2
GAMG:  Solving for p, Initial residual = 0.191986, Final residual = 0.0056013, No Iterations 5
GAMG:  Solving for p, Initial residual = 0.00588505, Final residual = 0.000262361, No Iterations 19
GAMG:  Solving for p, Initial residual = 0.00588505, Final residual = 0.000262361, No Iterations 19
GAMG:  Solving for p, Initial residual = 0.000364714, Final residual = 1.34238e-05, No Iterations 20
GAMG:  Solving for p, Initial residual = 0.000364714, Final residual = 1.34238e-05, No Iterations 20
GAMG:  Solving for p, Initial residual = 3.04111e-05, Final residual = 1.39534e-06, No Iterations 18
time step continuity errors : sum local = 7.29637e-05, global = 4.79465e-06, cumulative = -1.29558e-05
smoothSolver:  Solving for omega, Initial residual = 0.0061304, Final residual = 0.000492107, No Iterations 2
smoothSolver:  Solving for k, Initial residual = 0.00203282, Final residual = 7.71208e-05, No Iterations 2
bounding k, min: -0.0430008 max: 1478.38 average: 2.87285
ExecutionTime = 30.88 s  ClockTime = 31 s

forceCoeffs forceCoeffs1 write:
    Coefficient	Total	Pressure	Viscous	Internal
    Cd:	39.9653	38.5832	1.38211	0
    Cd(f):	131.809	131.103	0.705641	0
    Cd(r):	-91.8436	-92.5201	0.676472	0
    Cl:	-223.653	-223.623	-0.0291688	0
    Cl(f):	-25.7107	-25.7002	-0.0105036	0
    Cl(r):	-197.942	-197.923	-0.0186652	0
    CmPitch:	86.1156	86.1115	0.00408076	0
    CmRoll:	111.826	111.812	0.0145844	0
    CmYaw:	19.9826	19.2916	0.691056	0
    Cs:	-4.32452e-19	-4.52617e-19	2.01648e-20	0
    Cs(f):	19.9826	19.2916	0.691056	0
    Cs(r):	-19.9826	-19.2916	-0.691056	0

    writing force and moment coefficient files.

Time = 23

GAMG:  Solving for p, Initial residual = 3.04111e-05, Final residual = 1.39534e-06, No Iterations 18
time step continuity errors : sum local = 7.29637e-05, global = 4.79465e-06, cumulative = -1.29558e-05
smoothSolver:  Solving for omega, Initial residual = 0.0061304, Final residual = 0.000492107, No Iterations 2
smoothSolver:  Solving for Ux, Initial residual = 0.00321551, Final residual = 0.000269411, No Iterations 2
smoothSolver:  Solving for Uy, Initial residual = 0.00655092, Final residual = 0.000529611, No Iterations 2
smoothSolver:  Solving for k, Initial residual = 0.00203282, Final residual = 7.71208e-05, No Iterations 2
bounding k, min: -0.0430008 max: 1478.38 average: 2.87285
ExecutionTime = 30.98 s  ClockTime = 31 s

forceCoeffs forceCoeffs1 write:
    Coefficient	Total	Pressure	Viscous	Internal
    Cd:	39.9653	38.5832	1.38211	0
    Cd(f):	131.809	131.103	0.705641	0
    Cd(r):	-91.8436	-92.5201	0.676472	0
    Cl:	-223.653	-223.623	-0.0291688	0
    Cl(f):	-25.7107	-25.7002	-0.0105036	0
    Cl(r):	-197.942	-197.923	-0.0186652	0
    CmPitch:	86.1156	86.1115	0.00408076	0
    CmRoll:	111.826	111.812	0.0145844	0
    CmYaw:	19.9826	19.2916	0.691056	0
    Cs:	-4.32452e-19	-4.52617e-19	2.01648e-20	0
    Cs(f):	19.9826	19.2916	0.691056	0
    Cs(r):	-19.9826	-19.2916	-0.691056	0

    writing force and moment coefficient files.

Time = 23

GAMG:  Solving for p, Initial residual = 0.180572, Final residual = 0.00529099, No Iterations 5
smoothSolver:  Solving for Ux, Initial residual = 0.00321551, Final residual = 0.000269411, No Iterations 2
smoothSolver:  Solving for Uy, Initial residual = 0.00655092, Final residual = 0.000529611, No Iterations 2
GAMG:  Solving for p, Initial residual = 0.180572, Final residual = 0.00529099, No Iterations 5
GAMG:  Solving for p, Initial residual = 0.00543419, Final residual = 0.000265896, No Iterations 17
GAMG:  Solving for p, Initial residual = 0.00543419, Final residual = 0.000265896, No Iterations 17
GAMG:  Solving for p, Initial residual = 0.000351015, Final residual = 1.64335e-05, No Iterations 16
GAMG:  Solving for p, Initial residual = 0.000351015, Final residual = 1.64335e-05, No Iterations 16
GAMG:  Solving for p, Initial residual = 3.35738e-05, Final residual = 1.19773e-06, No Iterations 22
time step continuity errors : sum local = 7.2125e-05, global = 4.83784e-06, cumulative = -8.118e-06
smoothSolver:  Solving for omega, Initial residual = 0.00624171, Final residual = 0.000490813, No Iterations 2
smoothSolver:  Solving for k, Initial residual = 0.0023798, Final residual = 7.74937e-05, No Iterations 2
bounding k, min: -0.00350201 max: 1969.12 average: 2.90418
ExecutionTime = 32.05 s  ClockTime = 32 s

forceCoeffs forceCoeffs1 write:
    Coefficient	Total	Pressure	Viscous	Internal
    Cd:	38.141	36.7546	1.38639	0
    Cd(f):	132.902	132.194	0.707912	0
    Cd(r):	-94.7608	-95.4393	0.678477	0
    Cl:	-227.663	-227.633	-0.0294352	0
    Cl(f):	-26.4615	-26.4509	-0.0105583	0
    Cl(r):	-201.201	-201.182	-0.0188769	0
    CmPitch:	87.3699	87.3657	0.00415927	0
    CmRoll:	113.831	113.817	0.0147176	0
    CmYaw:	19.0705	18.3773	0.693194	0
    Cs:	-3.81422e-19	-4.00416e-19	1.89938e-20	0
    Cs(f):	19.0705	18.3773	0.693194	0
    Cs(r):	-19.0705	-18.3773	-0.693194	0

    writing force and moment coefficient files.

Time = 24

GAMG:  Solving for p, Initial residual = 3.35738e-05, Final residual = 1.19773e-06, No Iterations 22
[...]
    Cd:	-48.4188	-49.7924	1.37354	0
    Cd(f):	168.822	168.101	0.72054	0
    Cd(r):	-217.241	-217.894	0.652996	0
    Cl:	-386.062	-385.995	-0.0675441	0
    Cl(f):	-86.1201	-86.0993	-0.020801	0
    Cl(r):	-299.942	-299.896	-0.0467431	0
    CmPitch:	106.911	106.898	0.012971	0
    CmRoll:	193.031	192.997	0.0337721	0
    CmYaw:	-24.2094	-24.8962	0.686768	0
    Cs:	1.12325e-18	1.13138e-18	-8.13071e-21	0
    Cs(f):	-24.2094	-24.8962	0.686768	0
    Cs(r):	24.2094	24.8962	-0.686768	0

    writing force and moment coefficient files.

Time = 95

smoothSolver:  Solving for Ux, Initial residual = 0.00301217, Final residual = 0.000248686, No Iterations 2
smoothSolver:  Solving for Uy, Initial residual = 0.00520384, Final residual = 0.000401526, No Iterations 2
GAMG:  Solving for p, Initial residual = 0.0645773, Final residual = 0.00272202, No Iterations 4
GAMG:  Solving for p, Initial residual = 0.00017502, Final residual = 6.06456e-06, No Iterations 29
GAMG:  Solving for p, Initial residual = 0.00293814, Final residual = 0.000136783, No Iterations 15
GAMG:  Solving for p, Initial residual = 2.02468e-05, Final residual = 9.64996e-07, No Iterations 20
time step continuity errors : sum local = 8.95296e-05, global = -8.02853e-06, cumulative = 0.000261859
smoothSolver:  Solving for omega, Initial residual = 0.00508342, Final residual = 0.000405394, No Iterations 2
smoothSolver:  Solving for k, Initial residual = 0.00176133, Final residual = 9.07501e-05, No Iterations 2
bounding k, min: -0.0424405 max: 1456.1 average: 4.6419
ExecutionTime = 118.81 s  ClockTime = 119 s

forceCoeffs forceCoeffs1 write:
    Coefficient	Total	Pressure	Viscous	Internal
    Cd:	-49.0474	-50.4188	1.37142	0
    Cd(f):	168.535	167.815	0.719882	0
    Cd(r):	-217.582	-218.234	0.651536	0
    Cl:	-386.117	-386.049	-0.0683462	0
    Cl(f):	-86.9234	-86.9023	-0.021029	0
    Cl(r):	-299.194	-299.147	-0.0473173	0
    CmPitch:	106.135	106.122	0.0131442	0
    CmRoll:	193.059	193.025	0.0341731	0
    CmYaw:	-24.5237	-25.2094	0.685709	0
    Cs:	1.12377e-18	1.13145e-18	-7.68175e-21	0
    Cs(f):	-24.5237	-25.2094	0.685709	0
    Cs(r):	24.5237	25.2094	-0.685709	0

    writing force and moment coefficient files.

Time = 96

GAMG:  Solving for p, Initial residual = 0.00017502, Final residual = 6.06456e-06, No Iterations 29
smoothSolver:  Solving for Ux, Initial residual = 0.0030107, Final residual = 0.000248726, No Iterations 2
smoothSolver:  Solving for Uy, Initial residual = 0.0051927, Final residual = 0.0004005, No Iterations 2
GAMG:  Solving for p, Initial residual = 0.0539899, Final residual = 0.00248802, No Iterations 4
GAMG:  Solving for p, Initial residual = 2.02468e-05, Final residual = 9.64996e-07, No Iterations 20
time step continuity errors : sum local = 8.95296e-05, global = -8.02853e-06, cumulative = 0.000261859
smoothSolver:  Solving for omega, Initial residual = 0.00508342, Final residual = 0.000405394, No Iterations 2
smoothSolver:  Solving for k, Initial residual = 0.00176133, Final residual = 9.07501e-05, No Iterations 2
bounding k, min: -0.0424405 max: 1456.1 average: 4.6419
ExecutionTime = 119.02 s  ClockTime = 119 s

GAMG:  Solving for p, Initial residual = 0.00269009, Final residual = 0.000122952, No Iterations 16
forceCoeffs forceCoeffs1 write:
    Coefficient	Total	Pressure	Viscous	Internal
    Cd:	-49.0474	-50.4188	1.37142	0
    Cd(f):	168.535	167.815	0.719882	0
    Cd(r):	-217.582	-218.234	0.651536	0
    Cl:	-386.117	-386.049	-0.0683462	0
    Cl(f):	-86.9234	-86.9023	-0.021029	0
    Cl(r):	-299.194	-299.147	-0.0473173	0
    CmPitch:	106.135	106.122	0.0131442	0
    CmRoll:	193.059	193.025	0.0341731	0
    CmYaw:	-24.5237	-25.2094	0.685709	0
    Cs:	1.12377e-18	1.13145e-18	-7.68175e-21	0
    Cs(f):	-24.5237	-25.2094	0.685709	0
    Cs(r):	24.5237	25.2094	-0.685709	0

    writing force and moment coefficient files.

Time = 96

smoothSolver:  Solving for Ux, Initial residual = 0.0030107, Final residual = 0.000248726, No Iterations 2
smoothSolver:  Solving for Uy, Initial residual = 0.0051927, Final residual = 0.0004005, No Iterations 2
GAMG:  Solving for p, Initial residual = 0.0539899, Final residual = 0.00248802, No Iterations 4
GAMG:  Solving for p, Initial residual = 0.000160234, Final residual = 6.74546e-06, No Iterations 26
GAMG:  Solving for p, Initial residual = 0.00269009, Final residual = 0.000122952, No Iterations 16
GAMG:  Solving for p, Initial residual = 2.03786e-05, Final residual = 7.01165e-07, No Iterations 20
time step continuity errors : sum local = 6.97626e-05, global = -5.83755e-06, cumulative = 0.000256022
smoothSolver:  Solving for omega, Initial residual = 0.00508198, Final residual = 0.00040416, No Iterations 2
smoothSolver:  Solving for k, Initial residual = 0.001763, Final residual = 9.1549e-05, No Iterations 2
bounding k, min: -0.0256474 max: 1437.66 average: 4.67396
ExecutionTime = 120.1 s  ClockTime = 120 s

forceCoeffs forceCoeffs1 write:
    Coefficient	Total	Pressure	Viscous	Internal
    Cd:	-50.3646	-51.7338	1.36924	0
    Cd(f):	167.462	166.743	0.719211	0
    Cd(r):	-217.827	-218.477	0.65003	0
    Cl:	-385.289	-385.22	-0.0691811	0
    Cl(f):	-87.7021	-87.6808	-0.0212715	0
    Cl(r):	-297.587	-297.539	-0.0479096	0
    CmPitch:	104.943	104.929	0.013319	0
    CmRoll:	192.645	192.61	0.0345905	0
    CmYaw:	-25.1823	-25.8669	0.68462	0
    Cs:	1.13e-18	1.13753e-18	-7.53875e-21	0
    Cs(f):	-25.1823	-25.8669	0.68462	0
    Cs(r):	25.1823	25.8669	-0.68462	0

    writing force and moment coefficient files.

Time = 97

GAMG:  Solving for p, Initial residual = 0.000160234, Final residual = 6.74546e-06, No Iterations 26
smoothSolver:  Solving for Ux, Initial residual = 0.00300602, Final residual = 0.000248002, No Iterations 2
smoothSolver:  Solving for Uy, Initial residual = 0.00517675, Final residual = 0.000399092, No Iterations 2
GAMG:  Solving for p, Initial residual = 0.0534352, Final residual = 0.00229984, No Iterations 4
GAMG:  Solving for p, Initial residual = 2.03786e-05, Final residual = 7.01165e-07, No Iterations 20
time step continuity errors : sum local = 6.97626e-05, global = -5.83755e-06, cumulative = 0.000256022
smoothSolver:  Solving for omega, Initial residual = 0.00508198, Final residual = 0.00040416, No Iterations 2
smoothSolver:  Solving for k, Initial residual = 0.001763, Final residual = 9.1549e-05, No Iterations 2
bounding k, min: -0.0256474 max: 1437.66 average: 4.67396
ExecutionTime = 120.3 s  ClockTime = 121 s

GAMG:  Solving for p, Initial residual = 0.00250675, Final residual = 0.00010643, No Iterations 16
forceCoeffs forceCoeffs1 write:
    Coefficient	Total	Pressure	Viscous	Internal
    Cd:	-50.3646	-51.7338	1.36924	0
    Cd(f):	167.462	166.743	0.719211	0
    Cd(r):	-217.827	-218.477	0.65003	0
    Cl:	-385.289	-385.22	-0.0691811	0
    Cl(f):	-87.7021	-87.6808	-0.0212715	0
    Cl(r):	-297.587	-297.539	-0.0479096	0
    CmPitch:	104.943	104.929	0.013319	0
    CmRoll:	192.645	192.61	0.0345905	0
    CmYaw:	-25.1823	-25.8669	0.68462	0
    Cs:	1.13e-18	1.13753e-18	-7.53875e-21	0
    Cs(f):	-25.1823	-25.8669	0.68462	0
    Cs(r):	25.1823	25.8669	-0.68462	0

    writing force and moment coefficient files.

Time = 97

smoothSolver:  Solving for Ux, Initial residual = 0.00300602, Final residual = 0.000248002, No Iterations 2
smoothSolver:  Solving for Uy, Initial residual = 0.00517675, Final residual = 0.000399092, No Iterations 2
GAMG:  Solving for p, Initial residual = 0.0534352, Final residual = 0.00229984, No Iterations 4
GAMG:  Solving for p, Initial residual = 0.00014033, Final residual = 5.64751e-06, No Iterations 26
GAMG:  Solving for p, Initial residual = 0.00250675, Final residual = 0.00010643, No Iterations 16
GAMG:  Solving for p, Initial residual = 1.73737e-05, Final residual = 8.61278e-07, No Iterations 18
time step continuity errors : sum local = 9.79429e-05, global = 4.51749e-06, cumulative = 0.000260539
smoothSolver:  Solving for omega, Initial residual = 0.00504276, Final residual = 0.000405809, No Iterations 2
smoothSolver:  Solving for k, Initial residual = 0.00176503, Final residual = 9.10757e-05, No Iterations 2
bounding k, min: -0.0248854 max: 1422.12 average: 4.70619
ExecutionTime = 121.35 s  ClockTime = 121 s

forceCoeffs forceCoeffs1 write:
    Coefficient	Total	Pressure	Viscous	Internal
    Cd:	-51.9326	-53.2996	1.36697	0
    Cd(f):	166.296	165.577	0.718487	0
    Cd(r):	-218.228	-218.877	0.64848	0
    Cl:	-384.524	-384.454	-0.0700066	0
    Cl(f):	-88.4012	-88.3797	-0.0215068	0
    Cl(r):	-296.123	-296.074	-0.0484998	0
    CmPitch:	103.861	103.847	0.0134965	0
    CmRoll:	192.262	192.227	0.0350033	0
    CmYaw:	-25.9663	-26.6498	0.683483	0
    Cs:	1.14296e-18	1.15038e-18	-7.42229e-21	0
    Cs(f):	-25.9663	-26.6498	0.683483	0
    Cs(r):	25.9663	26.6498	-0.683483	0

    writing force and moment coefficient files.

Time = 98

GAMG:  Solving for p, Initial residual = 0.00014033, Final residual = 5.64751e-06, No Iterations 26
smoothSolver:  Solving for Ux, Initial residual = 0.00300419, Final residual = 0.000247633, No Iterations 2
smoothSolver:  Solving for Uy, Initial residual = 0.0051644, Final residual = 0.000397697, No Iterations 2
GAMG:  Solving for p, Initial residual = 0.0416893, Final residual = 0.00198185, No Iterations 4
GAMG:  Solving for p, Initial residual = 1.73737e-05, Final residual = 8.61278e-07, No Iterations 18
time step continuity errors : sum local = 9.79429e-05, global = 4.51749e-06, cumulative = 0.000260539
smoothSolver:  Solving for omega, Initial residual = 0.00504276, Final residual = 0.000405809, No Iterations 2
smoothSolver:  Solving for k, Initial residual = 0.00176503, Final residual = 9.10757e-05, No Iterations 2
bounding k, min: -0.0248854 max: 1422.12 average: 4.70619
ExecutionTime = 121.52 s  ClockTime = 122 s

GAMG:  Solving for p, Initial residual = 0.00215873, Final residual = 0.000106007, No Iterations 14
forceCoeffs forceCoeffs1 write:
    Coefficient	Total	Pressure	Viscous	Internal
    Cd:	-51.9326	-53.2996	1.36697	0
    Cd(f):	166.296	165.577	0.718487	0
    Cd(r):	-218.228	-218.877	0.64848	0
    Cl:	-384.524	-384.454	-0.0700066	0
    Cl(f):	-88.4012	-88.3797	-0.0215068	0
    Cl(r):	-296.123	-296.074	-0.0484998	0
    CmPitch:	103.861	103.847	0.0134965	0
    CmRoll:	192.262	192.227	0.0350033	0
    CmYaw:	-25.9663	-26.6498	0.683483	0
    Cs:	1.14296e-18	1.15038e-18	-7.42229e-21	0
    Cs(f):	-25.9663	-26.6498	0.683483	0
    Cs(r):	25.9663	26.6498	-0.683483	0

    writing force and moment coefficient files.

Time = 98

smoothSolver:  Solving for Ux, Initial residual = 0.00300419, Final residual = 0.000247633, No Iterations 2
smoothSolver:  Solving for Uy, Initial residual = 0.0051644, Final residual = 0.000397697, No Iterations 2
GAMG:  Solving for p, Initial residual = 0.0416893, Final residual = 0.00198185, No Iterations 4
GAMG:  Solving for p, Initial residual = 0.000131493, Final residual = 4.82019e-06, No Iterations 26
GAMG:  Solving for p, Initial residual = 0.00215873, Final residual = 0.000106007, No Iterations 14
GAMG:  Solving for p, Initial residual = 1.5341e-05, Final residual = 5.6523e-07, No Iterations 20
time step continuity errors : sum local = 7.60426e-05, global = 6.45499e-06, cumulative = 0.000266994
smoothSolver:  Solving for omega, Initial residual = 0.00503491, Final residual = 0.000403667, No Iterations 2
GAMG:  Solving for p, Initial residual = 0.000131493, Final residual = 4.82019e-06, No Iterations 26
smoothSolver:  Solving for k, Initial residual = 0.00176554, Final residual = 8.96941e-05, No Iterations 2
bounding k, min: -0.00383027 max: 1405.12 average: 4.73924
ExecutionTime = 122.6 s  ClockTime = 123 s

forceCoeffs forceCoeffs1 write:
    Coefficient	Total	Pressure	Viscous	Internal
    Cd:	-53.5331	-54.8977	1.36458	0
    Cd(f):	165.323	164.605	0.717685	0
    Cd(r):	-218.856	-219.503	0.646896	0
    Cl:	-384.179	-384.109	-0.0707892	0
    Cl(f):	-89.0485	-89.0267	-0.0217194	0
    Cl(r):	-295.131	-295.082	-0.0490698	0
    CmPitch:	103.041	103.028	0.0136752	0
    CmRoll:	192.09	192.054	0.0353946	0
    CmYaw:	-26.7666	-27.4488	0.68229	0
    Cs:	1.15758e-18	1.16484e-18	-7.2575e-21	0
    Cs(f):	-26.7666	-27.4488	0.68229	0
    Cs(r):	26.7666	27.4488	-0.68229	0

    writing force and moment coefficient files.

Time = 99

smoothSolver:  Solving for Ux, Initial residual = 0.00299985, Final residual = 0.000247298, No Iterations 2
smoothSolver:  Solving for Uy, Initial residual = 0.00514793, Final residual = 0.000396997, No Iterations 2
GAMG:  Solving for p, Initial residual = 0.0549305, Final residual = 0.00255836, No Iterations 4
GAMG:  Solving for p, Initial residual = 1.5341e-05, Final residual = 5.6523e-07, No Iterations 20
time step continuity errors : sum local = 7.60426e-05, global = 6.45499e-06, cumulative = 0.000266994
smoothSolver:  Solving for omega, Initial residual = 0.00503491, Final residual = 0.000403667, No Iterations 2
smoothSolver:  Solving for k, Initial residual = 0.00176554, Final residual = 8.96941e-05, No Iterations 2
bounding k, min: -0.00383027 max: 1405.12 average: 4.73924
ExecutionTime = 122.76 s  ClockTime = 123 s

GAMG:  Solving for p, Initial residual = 0.00279035, Final residual = 0.000128541, No Iterations 14
forceCoeffs forceCoeffs1 write:
    Coefficient	Total	Pressure	Viscous	Internal
    Cd:	-53.5331	-54.8977	1.36458	0
    Cd(f):	165.323	164.605	0.717685	0
    Cd(r):	-218.856	-219.503	0.646896	0
    Cl:	-384.179	-384.109	-0.0707892	0
    Cl(f):	-89.0485	-89.0267	-0.0217194	0
    Cl(r):	-295.131	-295.082	-0.0490698	0
    CmPitch:	103.041	103.028	0.0136752	0
    CmRoll:	192.09	192.054	0.0353946	0
    CmYaw:	-26.7666	-27.4488	0.68229	0
    Cs:	1.15758e-18	1.16484e-18	-7.2575e-21	0
    Cs(f):	-26.7666	-27.4488	0.68229	0
    Cs(r):	26.7666	27.4488	-0.68229	0

    writing force and moment coefficient files.

Time = 99

smoothSolver:  Solving for Ux, Initial residual = 0.00299985, Final residual = 0.000247298, No Iterations 2
smoothSolver:  Solving for Uy, Initial residual = 0.00514793, Final residual = 0.000396997, No Iterations 2
GAMG:  Solving for p, Initial residual = 0.0549305, Final residual = 0.00255836, No Iterations 4
GAMG:  Solving for p, Initial residual = 0.000163684, Final residual = 6.4587e-06, No Iterations 24
GAMG:  Solving for p, Initial residual = 0.00279035, Final residual = 0.000128541, No Iterations 14
GAMG:  Solving for p, Initial residual = 1.94085e-05, Final residual = 9.64342e-07, No Iterations 20
time step continuity errors : sum local = 9.59826e-05, global = 7.16754e-06, cumulative = 0.000274162
smoothSolver:  Solving for omega, Initial residual = 0.00503289, Final residual = 0.000402869, No Iterations 2
smoothSolver:  Solving for k, Initial residual = 0.00177591, Final residual = 9.04239e-05, No Iterations 2
bounding k, min: -0.00340556 max: 1387.76 average: 4.7723
ExecutionTime = 123.82 s  ClockTime = 124 s

GAMG:  Solving for p, Initial residual = 0.000163684, Final residual = 6.4587e-06, No Iterations 24
forceCoeffs forceCoeffs1 write:
    Coefficient	Total	Pressure	Viscous	Internal
    Cd:	-54.9858	-56.348	1.36212	0
    Cd(f):	164.739	164.022	0.716843	0
    Cd(r):	-219.725	-220.37	0.645278	0
    Cl:	-384.464	-384.392	-0.0715649	0
    Cl(f):	-89.7255	-89.7036	-0.0219253	0
    Cl(r):	-294.738	-294.689	-0.0496396	0
    CmPitch:	102.506	102.492	0.0138572	0
    CmRoll:	192.232	192.196	0.0357825	0
    CmYaw:	-27.4929	-28.174	0.68106	0
    Cs:	1.16848e-18	1.17625e-18	-7.77e-21	0
    Cs(f):	-27.4929	-28.174	0.68106	0
    Cs(r):	27.4929	28.174	-0.68106	0

    writing force and moment coefficient files.

Time = 100

smoothSolver:  Solving for Ux, Initial residual = 0.00299775, Final residual = 0.000246855, No Iterations 2
smoothSolver:  Solving for Uy, Initial residual = 0.00513587, Final residual = 0.000395251, No Iterations 2
GAMG:  Solving for p, Initial residual = 0.0536127, Final residual = 0.00236478, No Iterations 4
GAMG:  Solving for p, Initial residual = 1.94085e-05, Final residual = 9.64342e-07, No Iterations 20
time step continuity errors : sum local = 9.59826e-05, global = 7.16754e-06, cumulative = 0.000274162
smoothSolver:  Solving for omega, Initial residual = 0.00503289, Final residual = 0.000402869, No Iterations 2
smoothSolver:  Solving for k, Initial residual = 0.00177591, Final residual = 9.04239e-05, No Iterations 2
bounding k, min: -0.00340556 max: 1387.76 average: 4.7723
ExecutionTime = 123.99 s  ClockTime = 124 s

GAMG:  Solving for p, Initial residual = 0.00257951, Final residual = 0.000112698, No Iterations 14
forceCoeffs forceCoeffs1 write:
    Coefficient	Total	Pressure	Viscous	Internal
    Cd:	-54.9858	-56.348	1.36212	0
    Cd(f):	164.739	164.022	0.716843	0
    Cd(r):	-219.725	-220.37	0.645278	0
    Cl:	-384.464	-384.392	-0.0715649	0
    Cl(f):	-89.7255	-89.7036	-0.0219253	0
    Cl(r):	-294.738	-294.689	-0.0496396	0
    CmPitch:	102.506	102.492	0.0138572	0
    CmRoll:	192.232	192.196	0.0357825	0
    CmYaw:	-27.4929	-28.174	0.68106	0
    Cs:	1.16848e-18	1.17625e-18	-7.77e-21	0
    Cs(f):	-27.4929	-28.174	0.68106	0
    Cs(r):	27.4929	28.174	-0.68106	0

    writing force and moment coefficient files.

Time = 100

smoothSolver:  Solving for Ux, Initial residual = 0.00299775, Final residual = 0.000246855, No Iterations 2
smoothSolver:  Solving for Uy, Initial residual = 0.00513587, Final residual = 0.000395251, No Iterations 2
GAMG:  Solving for p, Initial residual = 0.0536127, Final residual = 0.00236478, No Iterations 4
GAMG:  Solving for p, Initial residual = 0.000145895, Final residual = 6.39697e-06, No Iterations 24
GAMG:  Solving for p, Initial residual = 0.00257951, Final residual = 0.000112698, No Iterations 14
GAMG:  Solving for p, Initial residual = 1.77123e-05, Final residual = 7.53358e-07, No Iterations 20
time step continuity errors : sum local = 7.8352e-05, global = 5.64729e-06, cumulative = 0.000279809
smoothSolver:  Solving for omega, Initial residual = 0.00500842, Final residual = 0.000401584, No Iterations 2
smoothSolver:  Solving for k, Initial residual = 0.00178058, Final residual = 8.90695e-05, No Iterations 2
bounding k, min: -0.00440146 max: 1373.29 average: 4.80702
GAMG:  Solving for p, Initial residual = 0.000145895, Final residual = 6.39697e-06, No Iterations 24
GAMG:  Solving for p, Initial residual = 1.77123e-05, Final residual = 7.53358e-07, No Iterations 20
time step continuity errors : sum local = 7.8352e-05, global = 5.64729e-06, cumulative = 0.000279809
smoothSolver:  Solving for omega, Initial residual = 0.00500842, Final residual = 0.000401584, No Iterations 2
smoothSolver:  Solving for k, Initial residual = 0.00178058, Final residual = 8.90695e-05, No Iterations 2
bounding k, min: -0.00440146 max: 1373.29 average: 4.80702
ExecutionTime = 125.94 s  ClockTime = 126 s

forceCoeffs forceCoeffs1 write:
    Coefficient	Total	Pressure	Viscous	Internal
    Cd:	-56.0718	-57.4314	1.35961	0
    Cd(f):	164.774	164.058	0.716003	0
    Cd(r):	-220.846	-221.489	0.64361	0
    Cl:	-385.62	-385.547	-0.0723929	0
    Cl(f):	-90.4128	-90.3907	-0.0221614	0
    Cl(r):	-295.207	-295.156	-0.0502315	0
    CmPitch:	102.397	102.383	0.014035	0
    CmRoll:	192.81	192.774	0.0361965	0
    CmYaw:	-28.0359	-28.7157	0.679807	0
    Cs:	1.17736e-18	1.18477e-18	-7.41259e-21	0
    Cs(f):	-28.0359	-28.7157	0.679807	0
    Cs(r):	28.0359	28.7157	-0.679807	0

    writing force and moment coefficient files.

End

ExecutionTime = 126.06 s  ClockTime = 126 s

forceCoeffs forceCoeffs1 write:
    Coefficient	Total	Pressure	Viscous	Internal
    Cd:	-56.0718	-57.4314	1.35961	0
    Cd(f):	164.774	164.058	0.716003	0
    Cd(r):	-220.846	-221.489	0.64361	0
    Cl:	-385.62	-385.547	-0.0723929	0
    Cl(f):	-90.4128	-90.3907	-0.0221614	0
    Cl(r):	-295.207	-295.156	-0.0502315	0
    CmPitch:	102.397	102.383	0.014035	0
    CmRoll:	192.81	192.774	0.0361965	0
    CmYaw:	-28.0359	-28.7157	0.679807	0
    Cs:	1.17736e-18	1.18477e-18	-7.41259e-21	0
    Cs(f):	-28.0359	-28.7157	0.679807	0
    Cs(r):	28.0359	28.7157	-0.679807	0

    writing force and moment coefficient files.

End

