/*---------------------------------------------------------------------------*\
| =========                 |                                                 |
| \\      /  F ield         | OpenFOAM: The Open Source CFD Toolbox           |
|  \\    /   O peration     | Version:  2212                                  |
|   \\  /    A nd           | Website:  www.openfoam.com                      |
|    \\/     M anipulation  |                                                 |
\*---------------------------------------------------------------------------*/
Build  : _70874860-20230612 OPENFOAM=2212 patch=230612 version=2212
Arch   : "LSB;label=32;scalar=64"
Exec   : simpleFoam
Date   : Nov 27 2023
Time   : 11:34:17
Host   : maciek-gv62-7rc
PID    : 85259
/*---------------------------------------------------------------------------*\
| =========                 |                                                 |
| \\      /  F ield         | OpenFOAM: The Open Source CFD Toolbox           |
|  \\    /   O peration     | Version:  2212                                  |
|   \\  /    A nd           | Website:  www.openfoam.com                      |
|    \\/     M anipulation  |                                                 |
\*---------------------------------------------------------------------------*/
Build  : _70874860-20230612 OPENFOAM=2212 patch=230612 version=2212
Arch   : "LSB;label=32;scalar=64"
Exec   : simpleFoam
Date   : Nov 27 2023
Time   : 11:34:17
Host   : maciek-gv62-7rc
PID    : 85260
I/O    : uncollated
Case   : /home/maciek/repository/airSupport/run/NACA0015_AoA[0-3]_k-omega
nProcs : 1
I/O    : uncollated
Case   : /home/maciek/repository/airSupport/run/NACA0015_AoA[0-3]_k-omega
nProcs : 1
trapFpe: Floating point exception trapping enabled (FOAM_SIGFPE).
fileModificationChecking : Monitoring run-time modified files using timeStampMaster (fileModificationSkew 5, maxFileModificationPolls 20)
allowSystemOperations : Allowing user-supplied system call operations

// * * * * * * * * * * * * * * * * * * * * * * * * * * * * * * * * * * * * * //
trapFpe: Floating point exception trapping enabled (FOAM_SIGFPE).
fileModificationChecking : Monitoring run-time modified files using timeStampMaster (fileModificationSkew 5, maxFileModificationPolls 20)
allowSystemOperations : Allowing user-supplied system call operations

// * * * * * * * * * * * * * * * * * * * * * * * * * * * * * * * * * * * * * //
Create time

Create time

Create mesh for time = 0
Create mesh for time = 0


SIMPLE: convergence criteria
    field U	 tolerance 0.0001
    field p	 tolerance 0.001
    field "(k|epsilon|omega)"	 tolerance 0.001

Reading field p



SIMPLE: convergence criteria
    field U	 tolerance 0.0001
    field p	 tolerance 0.001
    field "(k|epsilon|omega)"	 tolerance 0.001

Reading field p

Reading field U

Reading field U

Reading/calculating face flux field phi

Selecting incompressible transport model Newtonian
Selecting turbulence model type RAS
Selecting RAS turbulence model kOmega
Reading/calculating face flux field phi

Selecting incompressible transport model Newtonian
Selecting turbulence model type RAS
Selecting RAS turbulence model kOmega
bounding k, min: 0 max: 1373.29 average: 4.80702
RAS
{
    RASModel        kOmega;
    turbulence      on;
    printCoeffs     on;
    betaStar        0.09;
    beta            0.072;
    gamma           0.52;
    alphaK          0.5;
    alphaOmega      0.5;
}

No MRF models present

No finite volume options present
bounding k, min: 0 max: 1373.29 average: 4.80702

Starting time loop

forceCoeffs forceCoeffs1:
    rho: rhoInf
    Freestream density (rhoInf) set to 1
    Not including porosity effects
    magUInf: 10
    lRef   : 1
    Aref   : 1
    rhoInf : 1
    Selecting all coefficients
    - Drag force: Cd
    - Drag force front: Cd(f)
    - Drag force rear: Cd(r)
    - Lift force: Cl
    - Lift force front: Cl(f)
    - Lift force rear: Cl(r)
    - Pitch moment: CmPitch
    - Roll moment: CmRoll
    - Yaw moment: CmYaw
    - Side force: Cs
    - Side force front: Cs(f)
    - Side force rear: Cs(r)


Time = 1

RAS
{
    RASModel        kOmega;
    turbulence      on;
    printCoeffs     on;
    betaStar        0.09;
    beta            0.072;
    gamma           0.52;
    alphaK          0.5;
    alphaOmega      0.5;
}

No MRF models present

No finite volume options present

Starting time loop

forceCoeffs forceCoeffs1:
    rho: rhoInf
    Freestream density (rhoInf) set to 1
    Not including porosity effects
    magUInf: 10
    lRef   : 1
    Aref   : 1
    rhoInf : 1
    Selecting all coefficients
    - Drag force: Cd
    - Drag force front: Cd(f)
    - Drag force rear: Cd(r)
    - Lift force: Cl
    - Lift force front: Cl(f)
    - Lift force rear: Cl(r)
    - Pitch moment: CmPitch
    - Roll moment: CmRoll
    - Yaw moment: CmYaw
    - Side force: Cs
    - Side force front: Cs(f)
    - Side force rear: Cs(r)


Time = 1

smoothSolver:  Solving for Ux, Initial residual = 0.00299893, Final residual = 0.000246584, No Iterations 2
smoothSolver:  Solving for Uy, Initial residual = 0.00511297, Final residual = 0.000394081, No Iterations 2
smoothSolver:  Solving for Ux, Initial residual = 0.00299893, Final residual = 0.000246584, No Iterations 2
smoothSolver:  Solving for Uy, Initial residual = 0.00511297, Final residual = 0.000394081, No Iterations 2
GAMG:  Solving for p, Initial residual = 0.0529331, Final residual = 0.00218101, No Iterations 4
GAMG:  Solving for p, Initial residual = 0.0529331, Final residual = 0.00218101, No Iterations 4
GAMG:  Solving for p, Initial residual = 0.00260081, Final residual = 0.00010161, No Iterations 16
GAMG:  Solving for p, Initial residual = 0.00260081, Final residual = 0.00010161, No Iterations 16
GAMG:  Solving for p, Initial residual = 0.000135443, Final residual = 5.79981e-06, No Iterations 18
GAMG:  Solving for p, Initial residual = 0.000135443, Final residual = 5.79981e-06, No Iterations 18
GAMG:  Solving for p, Initial residual = 1.36267e-05, Final residual = 5.68074e-07, No Iterations 17
time step continuity errors : sum local = 7.08119e-05, global = 6.47041e-06, cumulative = 6.47041e-06
GAMG:  Solving for p, Initial residual = 1.36267e-05, Final residual = 5.68074e-07, No Iterations 17
time step continuity errors : sum local = 7.08119e-05, global = 6.47041e-06, cumulative = 6.47041e-06
smoothSolver:  Solving for omega, Initial residual = 0.00503254, Final residual = 0.000403931, No Iterations 2
bounding omega, min: -6017.52 max: 617345 average: 3314.53
smoothSolver:  Solving for omega, Initial residual = 0.00503254, Final residual = 0.000403931, No Iterations 2
bounding omega, min: -6017.52 max: 617345 average: 3314.53
smoothSolver:  Solving for k, Initial residual = 0.00178695, Final residual = 8.92056e-05, No Iterations 2
bounding k, min: -0.0974491 max: 1361.75 average: 4.84483
ExecutionTime = 2.57 s  ClockTime = 2 s

smoothSolver:  Solving for k, Initial residual = 0.00178695, Final residual = 8.92056e-05, No Iterations 2
bounding k, min: -0.0974491 max: 1361.75 average: 4.84483
ExecutionTime = 2.59 s  ClockTime = 2 s

forceCoeffs forceCoeffs1 write:
    Coefficient	Total	Pressure	Viscous	Internal
    Cd:	-56.7892	-58.1456	1.35637	0
    Cd(f):	166.332	165.618	0.714911	0
    Cd(r):	-223.122	-223.763	0.641462	0
    Cl:	-389.454	-389.381	-0.0734493	0
    Cl(f):	-91.2445	-91.2219	-0.0226211	0
    Cl(r):	-298.21	-298.159	-0.0508282	0
    CmPitch:	103.483	103.468	0.0141035	0
    CmRoll:	194.727	194.69	0.0367246	0
    CmYaw:	-28.3946	-29.0728	0.678187	0
    Cs:	1.18735e-18	1.19423e-18	-6.88159e-21	0
    Cs(f):	-28.3946	-29.0728	0.678187	0
    Cs(r):	28.3946	29.0728	-0.678187	0

    writing force and moment coefficient files.

Time = 2

forceCoeffs forceCoeffs1 write:
    Coefficient	Total	Pressure	Viscous	Internal
    Cd:	-56.7892	-58.1456	1.35637	0
    Cd(f):	166.332	165.618	0.714911	0
    Cd(r):	-223.122	-223.763	0.641462	0
    Cl:	-389.454	-389.381	-0.0734493	0
    Cl(f):	-91.2445	-91.2219	-0.0226211	0
    Cl(r):	-298.21	-298.159	-0.0508282	0
    CmPitch:	103.483	103.468	0.0141035	0
    CmRoll:	194.727	194.69	0.0367246	0
    CmYaw:	-28.3946	-29.0728	0.678187	0
    Cs:	1.18735e-18	1.19423e-18	-6.88159e-21	0
    Cs(f):	-28.3946	-29.0728	0.678187	0
    Cs(r):	28.3946	29.0728	-0.678187	0

    writing force and moment coefficient files.

Time = 2

smoothSolver:  Solving for Ux, Initial residual = 0.00300333, Final residual = 0.000246257, No Iterations 2
smoothSolver:  Solving for Uy, Initial residual = 0.00510683, Final residual = 0.000393786, No Iterations 2
smoothSolver:  Solving for Ux, Initial residual = 0.00300333, Final residual = 0.000246257, No Iterations 2
smoothSolver:  Solving for Uy, Initial residual = 0.00510683, Final residual = 0.000393786, No Iterations 2
GAMG:  Solving for p, Initial residual = 0.0641538, Final residual = 0.00272543, No Iterations 4
GAMG:  Solving for p, Initial residual = 0.0641538, Final residual = 0.00272543, No Iterations 4
GAMG:  Solving for p, Initial residual = 0.0029812, Final residual = 0.00014153, No Iterations 14
GAMG:  Solving for p, Initial residual = 0.0029812, Final residual = 0.00014153, No Iterations 14
GAMG:  Solving for p, Initial residual = 0.000179809, Final residual = 7.60037e-06, No Iterations 24
GAMG:  Solving for p, Initial residual = 0.000179809, Final residual = 7.60037e-06, No Iterations 24
GAMG:  Solving for p, Initial residual = 2.17073e-05, Final residual = 8.19054e-07, No Iterations 17
time step continuity errors : sum local = 7.18882e-05, global = -6.64642e-06, cumulative = -1.76012e-07
GAMG:  Solving for p, Initial residual = 2.17073e-05, Final residual = 8.19054e-07, No Iterations 17
time step continuity errors : sum local = 7.18882e-05, global = -6.64642e-06, cumulative = -1.76012e-07
smoothSolver:  Solving for omega, Initial residual = 0.00502144, Final residual = 0.000401251, No Iterations 2
smoothSolver:  Solving for omega, Initial residual = 0.00502144, Final residual = 0.000401251, No Iterations 2
smoothSolver:  Solving for k, Initial residual = 0.00179409, Final residual = 8.93963e-05, No Iterations 2
bounding k, min: -0.00193794 max: 1343.86 average: 4.88519
ExecutionTime = 3.75 s  ClockTime = 3 s

smoothSolver:  Solving for k, Initial residual = 0.00179409, Final residual = 8.93963e-05, No Iterations 2
bounding k, min: -0.00193794 max: 1343.86 average: 4.88519
forceCoeffs forceCoeffs1 write:
    Coefficient	Total	Pressure	Viscous	Internal
    Cd:	-57.5129	-58.867	1.3541	0
    Cd(f):	166.387	165.673	0.71414	0
    Cd(r):	-223.9	-224.54	0.639957	0
    Cl:	-390.286	-390.212	-0.0741834	0
    Cl(f):	-92.1176	-92.0948	-0.0228226	0
    Cl(r):	-298.169	-298.118	-0.0513607	0
    CmPitch:	103.026	103.011	0.0142691	0
    CmRoll:	195.143	195.106	0.0370917	0
    CmYaw:	-28.7565	-29.4335	0.677048	0
    Cs:	1.18456e-18	1.19182e-18	-7.25841e-21	0
    Cs(f):	-28.7565	-29.4335	0.677048	0
    Cs(r):	28.7565	29.4335	-0.677048	0

    writing force and moment coefficient files.

Time = 3

ExecutionTime = 3.77 s  ClockTime = 3 s

forceCoeffs forceCoeffs1 write:
    Coefficient	Total	Pressure	Viscous	Internal
    Cd:	-57.5129	-58.867	1.3541	0
    Cd(f):	166.387	165.673	0.71414	0
    Cd(r):	-223.9	-224.54	0.639957	0
    Cl:	-390.286	-390.212	-0.0741834	0
    Cl(f):	-92.1176	-92.0948	-0.0228226	0
    Cl(r):	-298.169	-298.118	-0.0513607	0
    CmPitch:	103.026	103.011	0.0142691	0
    CmRoll:	195.143	195.106	0.0370917	0
    CmYaw:	-28.7565	-29.4335	0.677048	0
    Cs:	1.18456e-18	1.19182e-18	-7.25841e-21	0
    Cs(f):	-28.7565	-29.4335	0.677048	0
    Cs(r):	28.7565	29.4335	-0.677048	0

    writing force and moment coefficient files.

Time = 3

smoothSolver:  Solving for Ux, Initial residual = 0.00299605, Final residual = 0.000246087, No Iterations 2
smoothSolver:  Solving for Uy, Initial residual = 0.00509017, Final residual = 0.000392272, No Iterations 2
smoothSolver:  Solving for Ux, Initial residual = 0.00299605, Final residual = 0.000246087, No Iterations 2
smoothSolver:  Solving for Uy, Initial residual = 0.00509017, Final residual = 0.000392272, No Iterations 2
GAMG:  Solving for p, Initial residual = 0.0636556, Final residual = 0.00275646, No Iterations 4
GAMG:  Solving for p, Initial residual = 0.0636556, Final residual = 0.00275646, No Iterations 4
GAMG:  Solving for p, Initial residual = 0.0029235, Final residual = 0.000139847, No Iterations 14
GAMG:  Solving for p, Initial residual = 0.0029235, Final residual = 0.000139847, No Iterations 14
GAMG:  Solving for p, Initial residual = 0.000174442, Final residual = 5.87774e-06, No Iterations 26
GAMG:  Solving for p, Initial residual = 0.000174442, Final residual = 5.87774e-06, No Iterations 26
GAMG:  Solving for p, Initial residual = 1.97044e-05, Final residual = 9.52363e-07, No Iterations 15
time step continuity errors : sum local = 9.0242e-05, global = -7.30563e-06, cumulative = -7.48164e-06
GAMG:  Solving for p, Initial residual = 1.97044e-05, Final residual = 9.52363e-07, No Iterations 15
time step continuity errors : sum local = 9.0242e-05, global = -7.30563e-06, cumulative = -7.48164e-06
smoothSolver:  Solving for omega, Initial residual = 0.0050479, Final residual = 0.000401915, No Iterations 2
smoothSolver:  Solving for omega, Initial residual = 0.0050479, Final residual = 0.000401915, No Iterations 2
smoothSolver:  Solving for k, Initial residual = 0.00179253, Final residual = 9.20649e-05, No Iterations 2
bounding k, min: -0.0068645 max: 1415.78 average: 4.92287
ExecutionTime = 4.95 s  ClockTime = 5 s

forceCoeffs forceCoeffs1 write:
    Coefficient	Total	Pressure	Viscous	Internal
    Cd:	-58.1167	-59.4685	1.35178	0
    Cd(f):	166.878	166.164	0.713357	0
    Cd(r):	-224.995	-225.633	0.638424	0
    Cl:	-391.872	-391.797	-0.0749334	0
    Cl(f):	-92.9992	-92.9762	-0.0230262	0
    Cl(r):	-298.873	-298.821	-0.0519072	0
    CmPitch:	102.937	102.923	0.0144405	0
    CmRoll:	195.936	195.899	0.0374667	0
    CmYaw:	-29.0584	-29.7342	0.675891	0
    Cs:	1.18764e-18	1.19396e-18	-6.32785e-21	0
    Cs(f):	-29.0584	-29.7342	0.675891	0
    Cs(r):	29.0584	29.7342	-0.675891	0

    writing force and moment coefficient files.

Time = 4

smoothSolver:  Solving for k, Initial residual = 0.00179253, Final residual = 9.20649e-05, No Iterations 2
bounding k, min: -0.0068645 max: 1415.78 average: 4.92287
ExecutionTime = 4.98 s  ClockTime = 5 s

forceCoeffs forceCoeffs1 write:
    Coefficient	Total	Pressure	Viscous	Internal
    Cd:	-58.1167	-59.4685	1.35178	0
    Cd(f):	166.878	166.164	0.713357	0
    Cd(r):	-224.995	-225.633	0.638424	0
    Cl:	-391.872	-391.797	-0.0749334	0
    Cl(f):	-92.9992	-92.9762	-0.0230262	0
    Cl(r):	-298.873	-298.821	-0.0519072	0
    CmPitch:	102.937	102.923	0.0144405	0
    CmRoll:	195.936	195.899	0.0374667	0
    CmYaw:	-29.0584	-29.7342	0.675891	0
    Cs:	1.18764e-18	1.19396e-18	-6.32785e-21	0
    Cs(f):	-29.0584	-29.7342	0.675891	0
    Cs(r):	29.0584	29.7342	-0.675891	0

    writing force and moment coefficient files.

Time = 4

smoothSolver:  Solving for Ux, Initial residual = 0.00299215, Final residual = 0.000245598, No Iterations 2
smoothSolver:  Solving for Uy, Initial residual = 0.0050773, Final residual = 0.000390999, No Iterations 2
smoothSolver:  Solving for Ux, Initial residual = 0.00299215, Final residual = 0.000245598, No Iterations 2
smoothSolver:  Solving for Uy, Initial residual = 0.0050773, Final residual = 0.000390999, No Iterations 2
GAMG:  Solving for p, Initial residual = 0.0730327, Final residual = 0.00289701, No Iterations 4
GAMG:  Solving for p, Initial residual = 0.0730327, Final residual = 0.00289701, No Iterations 4
GAMG:  Solving for p, Initial residual = 0.0030736, Final residual = 0.000144235, No Iterations 14
GAMG:  Solving for p, Initial residual = 0.0030736, Final residual = 0.000144235, No Iterations 14
GAMG:  Solving for p, Initial residual = 0.000179801, Final residual = 7.79512e-06, No Iterations 26
GAMG:  Solving for p, Initial residual = 0.000179801, Final residual = 7.79512e-06, No Iterations 26
GAMG:  Solving for p, Initial residual = 2.10947e-05, Final residual = 8.51294e-07, No Iterations 20
time step continuity errors : sum local = 8.17199e-05, global = -6.80328e-06, cumulative = -1.42849e-05
GAMG:  Solving for p, Initial residual = 2.10947e-05, Final residual = 8.51294e-07, No Iterations 20
time step continuity errors : sum local = 8.17199e-05, global = -6.80328e-06, cumulative = -1.42849e-05
smoothSolver:  Solving for omega, Initial residual = 0.00503885, Final residual = 0.000398812, No Iterations 2
smoothSolver:  Solving for omega, Initial residual = 0.00503885, Final residual = 0.000398812, No Iterations 2
smoothSolver:  Solving for k, Initial residual = 0.00180157, Final residual = 9.39686e-05, No Iterations 2
bounding k, min: -1.30452e-05 max: 1473.5 average: 4.95948
ExecutionTime = 6.2 s  ClockTime = 6 s

forceCoeffs forceCoeffs1 write:
    Coefficient	Total	Pressure	Viscous	Internal
    Cd:	-58.6037	-59.9531	1.34942	0
    Cd(f):	167.72	167.008	0.712551	0
    Cd(r):	-226.324	-226.961	0.636868	0
    Cl:	-394.044	-393.968	-0.0756828	0
    Cl(f):	-93.847	-93.8238	-0.0232179	0
    Cl(r):	-300.197	-300.145	-0.0524649	0
    CmPitch:	103.175	103.16	0.0146235	0
    CmRoll:	197.022	196.984	0.0378414	0
    CmYaw:	-29.3019	-29.9766	0.67471	0
    Cs:	1.1884e-18	1.19523e-18	-6.82282e-21	0
    Cs(f):	-29.3019	-29.9766	0.67471	0
    Cs(r):	29.3019	29.9766	-0.67471	0

    writing force and moment coefficient files.

Time = 5

smoothSolver:  Solving for k, Initial residual = 0.00180157, Final residual = 9.39686e-05, No Iterations 2
bounding k, min: -1.30452e-05 max: 1473.5 average: 4.95948
ExecutionTime = 6.22 s  ClockTime = 6 s

forceCoeffs forceCoeffs1 write:
    Coefficient	Total	Pressure	Viscous	Internal
    Cd:	-58.6037	-59.9531	1.34942	0
    Cd(f):	167.72	167.008	0.712551	0
    Cd(r):	-226.324	-226.961	0.636868	0
    Cl:	-394.044	-393.968	-0.0756828	0
    Cl(f):	-93.847	-93.8238	-0.0232179	0
    Cl(r):	-300.197	-300.145	-0.0524649	0
    CmPitch:	103.175	103.16	0.0146235	0
    CmRoll:	197.022	196.984	0.0378414	0
    CmYaw:	-29.3019	-29.9766	0.67471	0
    Cs:	1.1884e-18	1.19523e-18	-6.82282e-21	0
    Cs(f):	-29.3019	-29.9766	0.67471	0
    Cs(r):	29.3019	29.9766	-0.67471	0

    writing force and moment coefficient files.

Time = 5

smoothSolver:  Solving for Ux, Initial residual = 0.00298893, Final residual = 0.000245494, No Iterations 2
smoothSolver:  Solving for Uy, Initial residual = 0.00506281, Final residual = 0.000390011, No Iterations 2
smoothSolver:  Solving for Ux, Initial residual = 0.00298893, Final residual = 0.000245494, No Iterations 2
smoothSolver:  Solving for Uy, Initial residual = 0.00506281, Final residual = 0.000390011, No Iterations 2
GAMG:  Solving for p, Initial residual = 0.0623212, Final residual = 0.0027244, No Iterations 4
GAMG:  Solving for p, Initial residual = 0.0623212, Final residual = 0.0027244, No Iterations 4
GAMG:  Solving for p, Initial residual = 0.00287811, Final residual = 0.000133878, No Iterations 14
GAMG:  Solving for p, Initial residual = 0.00287811, Final residual = 0.000133878, No Iterations 14
GAMG:  Solving for p, Initial residual = 0.000170511, Final residual = 6.62435e-06, No Iterations 28
GAMG:  Solving for p, Initial residual = 0.000170511, Final residual = 6.62435e-06, No Iterations 28
GAMG:  Solving for p, Initial residual = 1.98391e-05, Final residual = 9.88662e-07, No Iterations 17
time step continuity errors : sum local = 9.48855e-05, global = -7.16446e-06, cumulative = -2.14494e-05
GAMG:  Solving for p, Initial residual = 1.98391e-05, Final residual = 9.88662e-07, No Iterations 17
time step continuity errors : sum local = 9.48855e-05, global = -7.16446e-06, cumulative = -2.14494e-05
smoothSolver:  Solving for omega, Initial residual = 0.00504244, Final residual = 0.000400074, No Iterations 2
smoothSolver:  Solving for omega, Initial residual = 0.00504244, Final residual = 0.000400074, No Iterations 2
smoothSolver:  Solving for k, Initial residual = 0.00180952, Final residual = 9.58623e-05, No Iterations 2
bounding k, min: -0.0104015 max: 1560.9 average: 4.99606
ExecutionTime = 7.43 s  ClockTime = 7 s

smoothSolver:  Solving for k, Initial residual = 0.00180952, Final residual = 9.58623e-05, No Iterations 2
forceCoeffs forceCoeffs1 write:
    Coefficient	Total	Pressure	Viscous	Internal
bounding k, min: -0.0104015 max: 1560.9 average: 4.99606
    Cd:	-59.1822	-60.5292	1.34697	0
    Cd(f):	168.682	167.971	0.711738	0
    Cd(r):	-227.865	-228.5	0.635232	0
    Cl:	-396.547	-396.47	-0.0765059	0
    Cl(f):	-94.6501	-94.6267	-0.0234402	0
    Cl(r):	-301.897	-301.844	-0.0530657	0
    CmPitch:	103.623	103.608	0.0148128	0
    CmRoll:	198.273	198.235	0.038253	0
    CmYaw:	-29.5911	-30.2646	0.673485	0
    Cs:	1.1875e-18	1.19334e-18	-5.84147e-21	0
    Cs(f):	-29.5911	-30.2646	0.673485	0
    Cs(r):	29.5911	30.2646	-0.673485	0

    writing force and moment coefficient files.

Time = 6

ExecutionTime = 7.44 s  ClockTime = 7 s

forceCoeffs forceCoeffs1 write:
    Coefficient	Total	Pressure	Viscous	Internal
    Cd:	-59.1822	-60.5292	1.34697	0
    Cd(f):	168.682	167.971	0.711738	0
    Cd(r):	-227.865	-228.5	0.635232	0
    Cl:	-396.547	-396.47	-0.0765059	0
    Cl(f):	-94.6501	-94.6267	-0.0234402	0
    Cl(r):	-301.897	-301.844	-0.0530657	0
    CmPitch:	103.623	103.608	0.0148128	0
    CmRoll:	198.273	198.235	0.038253	0
    CmYaw:	-29.5911	-30.2646	0.673485	0
    Cs:	1.1875e-18	1.19334e-18	-5.84147e-21	0
    Cs(f):	-29.5911	-30.2646	0.673485	0
    Cs(r):	29.5911	30.2646	-0.673485	0

    writing force and moment coefficient files.

Time = 6

smoothSolver:  Solving for Ux, Initial residual = 0.00298642, Final residual = 0.000245301, No Iterations 2
smoothSolver:  Solving for Uy, Initial residual = 0.00504774, Final residual = 0.000388584, No Iterations 2
smoothSolver:  Solving for Ux, Initial residual = 0.00298642, Final residual = 0.000245301, No Iterations 2
smoothSolver:  Solving for Uy, Initial residual = 0.00504774, Final residual = 0.000388584, No Iterations 2
GAMG:  Solving for p, Initial residual = 0.0559389, Final residual = 0.002477, No Iterations 4
GAMG:  Solving for p, Initial residual = 0.0559389, Final residual = 0.002477, No Iterations 4
GAMG:  Solving for p, Initial residual = 0.00264575, Final residual = 0.000125498, No Iterations 14
GAMG:  Solving for p, Initial residual = 0.00264575, Final residual = 0.000125498, No Iterations 14
GAMG:  Solving for p, Initial residual = 0.00016164, Final residual = 5.21082e-06, No Iterations 27
GAMG:  Solving for p, Initial residual = 0.00016164, Final residual = 5.21082e-06, No Iterations 27
GAMG:  Solving for p, Initial residual = 1.85679e-05, Final residual = 6.36705e-07, No Iterations 17
time step continuity errors : sum local = 6.26483e-05, global = -4.93542e-06, cumulative = -2.63848e-05
GAMG:  Solving for p, Initial residual = 1.85679e-05, Final residual = 6.36705e-07, No Iterations 17
time step continuity errors : sum local = 6.26483e-05, global = -4.93542e-06, cumulative = -2.63848e-05
smoothSolver:  Solving for omega, Initial residual = 0.00503008, Final residual = 0.000398572, No Iterations 2
smoothSolver:  Solving for omega, Initial residual = 0.00503008, Final residual = 0.000398572, No Iterations 2
smoothSolver:  Solving for k, Initial residual = 0.00180249, Final residual = 9.55996e-05, No Iterations 2
bounding k, min: -0.0168717 max: 1610.84 average: 5.03357
ExecutionTime = 8.65 s  ClockTime = 8 s

smoothSolver:  Solving for k, Initial residual = 0.00180249, Final residual = 9.55996e-05, No Iterations 2
bounding k, min: -0.0168717 max: 1610.84 average: 5.03357
ExecutionTime = 8.64 s  ClockTime = 8 s

forceCoeffs forceCoeffs1 write:
    Coefficient	Total	Pressure	Viscous	Internal
    Cd:	-60.1043	-61.4487	1.34442	0
    Cd(f):	168.934	168.223	0.7109	0
    Cd(r):	-229.038	-229.672	0.633518	0
    Cl:	-397.972	-397.895	-0.0773818	0
    Cl(f):	-95.4225	-95.3988	-0.0236832	0
    Cl(r):	-302.549	-302.496	-0.0536986	0
    CmPitch:	103.563	103.548	0.0150077	0
    CmRoll:	198.986	198.947	0.0386909	0
    CmYaw:	-30.0521	-30.7243	0.672209	0
    Cs:	1.18547e-18	1.19138e-18	-5.90259e-21	0
    Cs(f):	-30.0521	-30.7243	0.672209	0
    Cs(r):	30.0521	30.7243	-0.672209	0

    writing force and moment coefficient files.

Time = 7

forceCoeffs forceCoeffs1 write:
    Coefficient	Total	Pressure	Viscous	Internal
    Cd:	-60.1043	-61.4487	1.34442	0
    Cd(f):	168.934	168.223	0.7109	0
    Cd(r):	-229.038	-229.672	0.633518	0
    Cl:	-397.972	-397.895	-0.0773818	0
    Cl(f):	-95.4225	-95.3988	-0.0236832	0
    Cl(r):	-302.549	-302.496	-0.0536986	0
    CmPitch:	103.563	103.548	0.0150077	0
    CmRoll:	198.986	198.947	0.0386909	0
    CmYaw:	-30.0521	-30.7243	0.672209	0
    Cs:	1.18547e-18	1.19138e-18	-5.90259e-21	0
    Cs(f):	-30.0521	-30.7243	0.672209	0
    Cs(r):	30.0521	30.7243	-0.672209	0

    writing force and moment coefficient files.

Time = 7

smoothSolver:  Solving for Ux, Initial residual = 0.00298694, Final residual = 0.000245053, No Iterations 2
smoothSolver:  Solving for Uy, Initial residual = 0.00503268, Final residual = 0.000387663, No Iterations 2
smoothSolver:  Solving for Ux, Initial residual = 0.00298694, Final residual = 0.000245053, No Iterations 2
smoothSolver:  Solving for Uy, Initial residual = 0.00503268, Final residual = 0.000387663, No Iterations 2
GAMG:  Solving for p, Initial residual = 0.0508992, Final residual = 0.00215969, No Iterations 4
GAMG:  Solving for p, Initial residual = 0.0508992, Final residual = 0.00215969, No Iterations 4
GAMG:  Solving for p, Initial residual = 0.00235222, Final residual = 0.000109209, No Iterations 15
GAMG:  Solving for p, Initial residual = 0.00235222, Final residual = 0.000109209, No Iterations 15
GAMG:  Solving for p, Initial residual = 0.000145024, Final residual = 5.54033e-06, No Iterations 22
GAMG:  Solving for p, Initial residual = 0.000145024, Final residual = 5.54033e-06, No Iterations 22
GAMG:  Solving for p, Initial residual = 1.81097e-05, Final residual = 6.13012e-07, No Iterations 17
time step continuity errors : sum local = 6.58933e-05, global = -5.21104e-06, cumulative = -3.15958e-05
GAMG:  Solving for p, Initial residual = 1.81097e-05, Final residual = 6.13012e-07, No Iterations 17
time step continuity errors : sum local = 6.58933e-05, global = -5.21104e-06, cumulative = -3.15958e-05
smoothSolver:  Solving for omega, Initial residual = 0.00503507, Final residual = 0.000400913, No Iterations 2
smoothSolver:  Solving for omega, Initial residual = 0.00503507, Final residual = 0.000400913, No Iterations 2
smoothSolver:  Solving for k, Initial residual = 0.00180756, Final residual = 9.58745e-05, No Iterations 2
bounding k, min: -0.0144243 max: 1660.64 average: 5.07143
ExecutionTime = 9.79 s  ClockTime = 9 s

smoothSolver:  Solving for k, Initial residual = 0.00180756, Final residual = 9.58745e-05, No Iterations 2
bounding k, min: -0.0144243 max: 1660.64 average: 5.07143
forceCoeffs forceCoeffs1 write:
    Coefficient	Total	Pressure	Viscous	Internal
ExecutionTime = 9.79 s  ClockTime = 10 s

    Cd:	-61.6184	-62.9601	1.34171	0
    Cd(f):	168.311	167.601	0.709983	0
    Cd(r):	-229.93	-230.561	0.63173	0
    Cl:	-398.241	-398.162	-0.0782533	0
    Cl(f):	-96.115	-96.0911	-0.0239168	0
    Cl(r):	-302.126	-302.071	-0.0543364	0
    CmPitch:	103.005	102.99	0.0152098	0
    CmRoll:	199.12	199.081	0.0391266	0
    CmYaw:	-30.8092	-31.4801	0.670857	0
    Cs:	1.18515e-18	1.19019e-18	-5.04406e-21	0
    Cs(f):	-30.8092	-31.4801	0.670857	0
    Cs(r):	30.8092	31.4801	-0.670857	0

    writing force and moment coefficient files.

Time = 8

forceCoeffs forceCoeffs1 write:
    Coefficient	Total	Pressure	Viscous	Internal
    Cd:	-61.6184	-62.9601	1.34171	0
    Cd(f):	168.311	167.601	0.709983	0
    Cd(r):	-229.93	-230.561	0.63173	0
    Cl:	-398.241	-398.162	-0.0782533	0
    Cl(f):	-96.115	-96.0911	-0.0239168	0
    Cl(r):	-302.126	-302.071	-0.0543364	0
    CmPitch:	103.005	102.99	0.0152098	0
    CmRoll:	199.12	199.081	0.0391266	0
    CmYaw:	-30.8092	-31.4801	0.670857	0
    Cs:	1.18515e-18	1.19019e-18	-5.04406e-21	0
    Cs(f):	-30.8092	-31.4801	0.670857	0
    Cs(r):	30.8092	31.4801	-0.670857	0

    writing force and moment coefficient files.

Time = 8

smoothSolver:  Solving for Ux, Initial residual = 0.00298349, Final residual = 0.000244891, No Iterations 2
smoothSolver:  Solving for Uy, Initial residual = 0.00501718, Final residual = 0.000386297, No Iterations 2
smoothSolver:  Solving for Ux, Initial residual = 0.00298349, Final residual = 0.000244891, No Iterations 2
smoothSolver:  Solving for Uy, Initial residual = 0.00501718, Final residual = 0.000386297, No Iterations 2
GAMG:  Solving for p, Initial residual = 0.0539249, Final residual = 0.00242823, No Iterations 4
GAMG:  Solving for p, Initial residual = 0.0539249, Final residual = 0.00242823, No Iterations 4
GAMG:  Solving for p, Initial residual = 0.00263313, Final residual = 0.000126309, No Iterations 15
GAMG:  Solving for p, Initial residual = 0.00263313, Final residual = 0.000126309, No Iterations 15
GAMG:  Solving for p, Initial residual = 0.000161674, Final residual = 6.07251e-06, No Iterations 24
GAMG:  Solving for p, Initial residual = 0.000161674, Final residual = 6.07251e-06, No Iterations 24
GAMG:  Solving for p, Initial residual = 1.90358e-05, Final residual = 7.80787e-07, No Iterations 17
time step continuity errors : sum local = 7.97729e-05, global = -6.48073e-06, cumulative = -3.80766e-05
GAMG:  Solving for p, Initial residual = 1.90358e-05, Final residual = 7.80787e-07, No Iterations 17
time step continuity errors : sum local = 7.97729e-05, global = -6.48073e-06, cumulative = -3.80766e-05
smoothSolver:  Solving for omega, Initial residual = 0.00503583, Final residual = 0.000398599, No Iterations 2
smoothSolver:  Solving for omega, Initial residual = 0.00503583, Final residual = 0.000398599, No Iterations 2
smoothSolver:  Solving for k, Initial residual = 0.00179928, Final residual = 9.57946e-05, No Iterations 2
bounding k, min: -0.00113582 max: 1700.66 average: 5.10756
ExecutionTime = 10.95 s  ClockTime = 11 s

forceCoeffs forceCoeffs1 write:
    Coefficient	Total	Pressure	Viscous	Internal
    Cd:	-63.5605	-64.8994	1.33884	0
    Cd(f):	167.004	166.295	0.708983	0
    Cd(r):	-230.564	-231.194	0.629856	0
    Cl:	-397.568	-397.489	-0.0791269	0
    Cl(f):	-96.7223	-96.6982	-0.0241435	0
    Cl(r):	-300.846	-300.791	-0.0549834	0
    CmPitch:	102.062	102.046	0.01542	0
    CmRoll:	198.784	198.744	0.0395635	0
    CmYaw:	-31.7803	-32.4497	0.66942	0
    Cs:	1.18832e-18	1.19334e-18	-5.02141e-21	0
    Cs(f):	-31.7803	-32.4497	0.66942	0
    Cs(r):	31.7803	32.4497	-0.66942	0

    writing force and moment coefficient files.

Time = 9

smoothSolver:  Solving for k, Initial residual = 0.00179928, Final residual = 9.57946e-05, No Iterations 2
bounding k, min: -0.00113582 max: 1700.66 average: 5.10756
ExecutionTime = 10.98 s  ClockTime = 11 s

forceCoeffs forceCoeffs1 write:
    Coefficient	Total	Pressure	Viscous	Internal
    Cd:	-63.5605	-64.8994	1.33884	0
    Cd(f):	167.004	166.295	0.708983	0
    Cd(r):	-230.564	-231.194	0.629856	0
    Cl:	-397.568	-397.489	-0.0791269	0
    Cl(f):	-96.7223	-96.6982	-0.0241435	0
    Cl(r):	-300.846	-300.791	-0.0549834	0
    CmPitch:	102.062	102.046	0.01542	0
    CmRoll:	198.784	198.744	0.0395635	0
    CmYaw:	-31.7803	-32.4497	0.66942	0
    Cs:	1.18832e-18	1.19334e-18	-5.02141e-21	0
    Cs(f):	-31.7803	-32.4497	0.66942	0
    Cs(r):	31.7803	32.4497	-0.66942	0

    writing force and moment coefficient files.

Time = 9

smoothSolver:  Solving for Ux, Initial residual = 0.00298303, Final residual = 0.000244603, No Iterations 2
smoothSolver:  Solving for Uy, Initial residual = 0.00500457, Final residual = 0.000385107, No Iterations 2
smoothSolver:  Solving for Ux, Initial residual = 0.00298303, Final residual = 0.000244603, No Iterations 2
smoothSolver:  Solving for Uy, Initial residual = 0.00500457, Final residual = 0.000385107, No Iterations 2
GAMG:  Solving for p, Initial residual = 0.0574611, Final residual = 0.00256805, No Iterations 4
GAMG:  Solving for p, Initial residual = 0.0574611, Final residual = 0.00256805, No Iterations 4
GAMG:  Solving for p, Initial residual = 0.0027689, Final residual = 0.000132928, No Iterations 15
GAMG:  Solving for p, Initial residual = 0.0027689, Final residual = 0.000132928, No Iterations 15
GAMG:  Solving for p, Initial residual = 0.000166998, Final residual = 6.07286e-06, No Iterations 26
GAMG:  Solving for p, Initial residual = 0.000166998, Final residual = 6.07286e-06, No Iterations 26
GAMG:  Solving for p, Initial residual = 1.90515e-05, Final residual = 7.76481e-07, No Iterations 21
time step continuity errors : sum local = 7.91916e-05, global = -6.666e-06, cumulative = -4.47426e-05
GAMG:  Solving for p, Initial residual = 1.90515e-05, Final residual = 7.76481e-07, No Iterations 21
time step continuity errors : sum local = 7.91916e-05, global = -6.666e-06, cumulative = -4.47426e-05
smoothSolver:  Solving for omega, Initial residual = 0.00503653, Final residual = 0.000399235, No Iterations 2
smoothSolver:  Solving for k, Initial residual = 0.00179559, Final residual = 9.59119e-05, No Iterations 2
bounding k, min: -0.0367853 max: 1732.53 average: 5.14349
ExecutionTime = 12.2 s  ClockTime = 12 s

smoothSolver:  Solving for omega, Initial residual = 0.00503653, Final residual = 0.000399235, No Iterations 2
forceCoeffs forceCoeffs1 write:
    Coefficient	Total	Pressure	Viscous	Internal
    Cd:	-65.6435	-66.9793	1.33581	0
    Cd(f):	165.513	164.805	0.707894	0
    Cd(r):	-231.157	-231.785	0.627912	0
    Cl:	-396.67	-396.59	-0.0799818	0
    Cl(f):	-97.275	-97.2507	-0.0243586	0
    Cl(r):	-299.395	-299.339	-0.0556232	0
    CmPitch:	101.06	101.044	0.0156323	0
    CmRoll:	198.335	198.295	0.0399909	0
    CmYaw:	-32.8217	-33.4896	0.667903	0
    Cs:	1.19775e-18	1.20228e-18	-4.5288e-21	0
    Cs(f):	-32.8217	-33.4896	0.667903	0
    Cs(r):	32.8217	33.4896	-0.667903	0

    writing force and moment coefficient files.

Time = 10

smoothSolver:  Solving for k, Initial residual = 0.00179559, Final residual = 9.59119e-05, No Iterations 2
bounding k, min: -0.0367853 max: 1732.53 average: 5.14349
ExecutionTime = 12.23 s  ClockTime = 12 s

forceCoeffs forceCoeffs1 write:
    Coefficient	Total	Pressure	Viscous	Internal
    Cd:	-65.6435	-66.9793	1.33581	0
    Cd(f):	165.513	164.805	0.707894	0
    Cd(r):	-231.157	-231.785	0.627912	0
    Cl:	-396.67	-396.59	-0.0799818	0
    Cl(f):	-97.275	-97.2507	-0.0243586	0
    Cl(r):	-299.395	-299.339	-0.0556232	0
    CmPitch:	101.06	101.044	0.0156323	0
    CmRoll:	198.335	198.295	0.0399909	0
    CmYaw:	-32.8217	-33.4896	0.667903	0
    Cs:	1.19775e-18	1.20228e-18	-4.5288e-21	0
    Cs(f):	-32.8217	-33.4896	0.667903	0
    Cs(r):	32.8217	33.4896	-0.667903	0

    writing force and moment coefficient files.

Time = 10

smoothSolver:  Solving for Ux, Initial residual = 0.00298142, Final residual = 0.000244331, No Iterations 2
smoothSolver:  Solving for Uy, Initial residual = 0.00498905, Final residual = 0.00038349, No Iterations 2
smoothSolver:  Solving for Ux, Initial residual = 0.00298142, Final residual = 0.000244331, No Iterations 2
smoothSolver:  Solving for Uy, Initial residual = 0.00498905, Final residual = 0.00038349, No Iterations 2
GAMG:  Solving for p, Initial residual = 0.0585598, Final residual = 0.00264974, No Iterations 4
GAMG:  Solving for p, Initial residual = 0.0585598, Final residual = 0.00264974, No Iterations 4
GAMG:  Solving for p, Initial residual = 0.00284519, Final residual = 0.000138432, No Iterations 15
GAMG:  Solving for p, Initial residual = 0.00284519, Final residual = 0.000138432, No Iterations 15
GAMG:  Solving for p, Initial residual = 0.000173314, Final residual = 8.30371e-06, No Iterations 26
GAMG:  Solving for p, Initial residual = 0.000173314, Final residual = 8.30371e-06, No Iterations 26
GAMG:  Solving for p, Initial residual = 2.11988e-05, Final residual = 1.03792e-06, No Iterations 18
time step continuity errors : sum local = 0.00010292, global = -6.74339e-06, cumulative = -5.1486e-05
GAMG:  Solving for p, Initial residual = 2.11988e-05, Final residual = 1.03792e-06, No Iterations 18
time step continuity errors : sum local = 0.00010292, global = -6.74339e-06, cumulative = -5.1486e-05
smoothSolver:  Solving for omega, Initial residual = 0.00503734, Final residual = 0.000397672, No Iterations 2
smoothSolver:  Solving for k, Initial residual = 0.00179295, Final residual = 9.52225e-05, No Iterations 2
smoothSolver:  Solving for omega, Initial residual = 0.00503734, Final residual = 0.000397672, No Iterations 2
bounding k, min: -0.00953854 max: 1765.4 average: 5.1798
ExecutionTime = 13.42 s  ClockTime = 13 s

forceCoeffs forceCoeffs1 write:
    Coefficient	Total	Pressure	Viscous	Internal
    Cd:	-67.6882	-69.0208	1.33264	0
    Cd(f):	164.159	163.452	0.70675	0
    Cd(r):	-231.847	-232.473	0.625885	0
    Cl:	-396.006	-395.925	-0.0808649	0
    Cl(f):	-97.847	-97.8224	-0.0245864	0
    Cl(r):	-298.159	-298.102	-0.0562785	0
    CmPitch:	100.156	100.14	0.015846	0
    CmRoll:	198.003	197.962	0.0404324	0
    CmYaw:	-33.8441	-34.5104	0.666318	0
    Cs:	1.20888e-18	1.21427e-18	-5.39152e-21	0
    Cs(f):	-33.8441	-34.5104	0.666318	0
    Cs(r):	33.8441	34.5104	-0.666318	0

    writing force and moment coefficient files.

Time = 11

smoothSolver:  Solving for k, Initial residual = 0.00179295, Final residual = 9.52225e-05, No Iterations 2
bounding k, min: -0.00953854 max: 1765.4 average: 5.1798
ExecutionTime = 13.44 s  ClockTime = 13 s

forceCoeffs forceCoeffs1 write:
    Coefficient	Total	Pressure	Viscous	Internal
    Cd:	-67.6882	-69.0208	1.33264	0
    Cd(f):	164.159	163.452	0.70675	0
    Cd(r):	-231.847	-232.473	0.625885	0
    Cl:	-396.006	-395.925	-0.0808649	0
    Cl(f):	-97.847	-97.8224	-0.0245864	0
    Cl(r):	-298.159	-298.102	-0.0562785	0
    CmPitch:	100.156	100.14	0.015846	0
    CmRoll:	198.003	197.962	0.0404324	0
    CmYaw:	-33.8441	-34.5104	0.666318	0
    Cs:	1.20888e-18	1.21427e-18	-5.39152e-21	0
    Cs(f):	-33.8441	-34.5104	0.666318	0
    Cs(r):	33.8441	34.5104	-0.666318	0

    writing force and moment coefficient files.

Time = 11

smoothSolver:  Solving for Ux, Initial residual = 0.00298053, Final residual = 0.000244092, No Iterations 2
smoothSolver:  Solving for Uy, Initial residual = 0.00497563, Final residual = 0.000382532, No Iterations 2
smoothSolver:  Solving for Ux, Initial residual = 0.00298053, Final residual = 0.000244092, No Iterations 2
smoothSolver:  Solving for Uy, Initial residual = 0.00497563, Final residual = 0.000382532, No Iterations 2
GAMG:  Solving for p, Initial residual = 0.0545453, Final residual = 0.00249925, No Iterations 4
GAMG:  Solving for p, Initial residual = 0.0545453, Final residual = 0.00249925, No Iterations 4
GAMG:  Solving for p, Initial residual = 0.0026674, Final residual = 0.000128923, No Iterations 14
GAMG:  Solving for p, Initial residual = 0.0026674, Final residual = 0.000128923, No Iterations 14
GAMG:  Solving for p, Initial residual = 0.000158564, Final residual = 6.5602e-06, No Iterations 26
GAMG:  Solving for p, Initial residual = 0.000158564, Final residual = 6.5602e-06, No Iterations 26
GAMG:  Solving for p, Initial residual = 1.83601e-05, Final residual = 9.07387e-07, No Iterations 20
time step continuity errors : sum local = 9.92438e-05, global = 7.63258e-06, cumulative = -4.38534e-05
GAMG:  Solving for p, Initial residual = 1.83601e-05, Final residual = 9.07387e-07, No Iterations 20
time step continuity errors : sum local = 9.92438e-05, global = 7.63258e-06, cumulative = -4.38534e-05
smoothSolver:  Solving for omega, Initial residual = 0.00501377, Final residual = 0.000398144, No Iterations 2
smoothSolver:  Solving for omega, Initial residual = 0.00501377, Final residual = 0.000398144, No Iterations 2
smoothSolver:  Solving for k, Initial residual = 0.00178499, Final residual = 9.43497e-05, No Iterations 2
bounding k, min: -0.183568 max: 1782.75 average: 5.21659
ExecutionTime = 14.66 s  ClockTime = 14 s

forceCoeffs forceCoeffs1 write:
    Coefficient	Total	Pressure	Viscous	Internal
    Cd:	-69.4989	-70.8283	1.32937	0
    Cd(f):	163.214	162.508	0.705631	0
    Cd(r):	-232.713	-233.336	0.623741	0
    Cl:	-395.927	-395.845	-0.08189	0
    Cl(f):	-98.4151	-98.3902	-0.0248908	0
    Cl(r):	-297.512	-297.455	-0.0569992	0
    CmPitch:	99.5482	99.5322	0.0160542	0
    CmRoll:	197.963	197.922	0.040945	0
    CmYaw:	-34.7495	-35.4141	0.664686	0
    Cs:	1.22551e-18	1.23063e-18	-5.11903e-21	0
    Cs(f):	-34.7495	-35.4141	0.664686	0
    Cs(r):	34.7495	35.4141	-0.664686	0

    writing force and moment coefficient files.

Time = 12

smoothSolver:  Solving for k, Initial residual = 0.00178499, Final residual = 9.43497e-05, No Iterations 2
bounding k, min: -0.183568 max: 1782.75 average: 5.21659
ExecutionTime = 14.67 s  ClockTime = 14 s

forceCoeffs forceCoeffs1 write:
    Coefficient	Total	Pressure	Viscous	Internal
    Cd:	-69.4989	-70.8283	1.32937	0
    Cd(f):	163.214	162.508	0.705631	0
    Cd(r):	-232.713	-233.336	0.623741	0
    Cl:	-395.927	-395.845	-0.08189	0
    Cl(f):	-98.4151	-98.3902	-0.0248908	0
    Cl(r):	-297.512	-297.455	-0.0569992	0
    CmPitch:	99.5482	99.5322	0.0160542	0
    CmRoll:	197.963	197.922	0.040945	0
    CmYaw:	-34.7495	-35.4141	0.664686	0
    Cs:	1.22551e-18	1.23063e-18	-5.11903e-21	0
    Cs(f):	-34.7495	-35.4141	0.664686	0
    Cs(r):	34.7495	35.4141	-0.664686	0

    writing force and moment coefficient files.

Time = 12

smoothSolver:  Solving for Ux, Initial residual = 0.00297873, Final residual = 0.000243803, No Iterations 2
smoothSolver:  Solving for Uy, Initial residual = 0.0049587, Final residual = 0.000381137, No Iterations 2
smoothSolver:  Solving for Ux, Initial residual = 0.00297873, Final residual = 0.000243803, No Iterations 2
smoothSolver:  Solving for Uy, Initial residual = 0.0049587, Final residual = 0.000381137, No Iterations 2
GAMG:  Solving for p, Initial residual = 0.0547021, Final residual = 0.00245381, No Iterations 4
GAMG:  Solving for p, Initial residual = 0.0547021, Final residual = 0.00245381, No Iterations 4
GAMG:  Solving for p, Initial residual = 0.00260889, Final residual = 0.000119705, No Iterations 14
GAMG:  Solving for p, Initial residual = 0.00260889, Final residual = 0.000119705, No Iterations 14
GAMG:  Solving for p, Initial residual = 0.000148879, Final residual = 5.85795e-06, No Iterations 24
GAMG:  Solving for p, Initial residual = 0.000148879, Final residual = 5.85795e-06, No Iterations 24
GAMG:  Solving for p, Initial residual = 1.71819e-05, Final residual = 7.34844e-07, No Iterations 20
time step continuity errors : sum local = 8.38866e-05, global = 7.03603e-06, cumulative = -3.68173e-05
GAMG:  Solving for p, Initial residual = 1.71819e-05, Final residual = 7.34844e-07, No Iterations 20
time step continuity errors : sum local = 8.38866e-05, global = 7.03603e-06, cumulative = -3.68173e-05
smoothSolver:  Solving for omega, Initial residual = 0.00504317, Final residual = 0.000397431, No Iterations 2
smoothSolver:  Solving for omega, Initial residual = 0.00504317, Final residual = 0.000397431, No Iterations 2
smoothSolver:  Solving for k, Initial residual = 0.00178505, Final residual = 9.42971e-05, No Iterations 2
bounding k, min: -0.0276551 max: 1810.78 average: 5.25412
ExecutionTime = 15.86 s  ClockTime = 16 s

forceCoeffs forceCoeffs1 write:
    Coefficient	Total	Pressure	Viscous	Internal
    Cd:	-70.9912	-72.3173	1.32609	0
    Cd(f):	163.016	162.312	0.704486	0
    Cd(r):	-234.007	-234.629	0.6216	0
    Cl:	-397.024	-396.941	-0.0828858	0
    Cl(f):	-99.0263	-99.0012	-0.0251821	0
    Cl(r):	-297.997	-297.939	-0.0577036	0
    CmPitch:	99.4854	99.4692	0.0162607	0
    CmRoll:	198.512	198.47	0.0414429	0
    CmYaw:	-35.4956	-36.1586	0.663043	0
    Cs:	1.24377e-18	1.25015e-18	-6.3857e-21	0
    Cs(f):	-35.4956	-36.1586	0.663043	0
    Cs(r):	35.4956	36.1586	-0.663043	0

    writing force and moment coefficient files.

Time = 13

smoothSolver:  Solving for k, Initial residual = 0.00178505, Final residual = 9.42971e-05, No Iterations 2
bounding k, min: -0.0276551 max: 1810.78 average: 5.25412
ExecutionTime = 15.88 s  ClockTime = 16 s

forceCoeffs forceCoeffs1 write:
    Coefficient	Total	Pressure	Viscous	Internal
    Cd:	-70.9912	-72.3173	1.32609	0
    Cd(f):	163.016	162.312	0.704486	0
    Cd(r):	-234.007	-234.629	0.6216	0
    Cl:	-397.024	-396.941	-0.0828858	0
    Cl(f):	-99.0263	-99.0012	-0.0251821	0
    Cl(r):	-297.997	-297.939	-0.0577036	0
    CmPitch:	99.4854	99.4692	0.0162607	0
    CmRoll:	198.512	198.47	0.0414429	0
    CmYaw:	-35.4956	-36.1586	0.663043	0
    Cs:	1.24377e-18	1.25015e-18	-6.3857e-21	0
    Cs(f):	-35.4956	-36.1586	0.663043	0
    Cs(r):	35.4956	36.1586	-0.663043	0

    writing force and moment coefficient files.

Time = 13

smoothSolver:  Solving for Ux, Initial residual = 0.00297881, Final residual = 0.000243695, No Iterations 2
smoothSolver:  Solving for Uy, Initial residual = 0.00494557, Final residual = 0.000379787, No Iterations 2
smoothSolver:  Solving for Ux, Initial residual = 0.00297881, Final residual = 0.000243695, No Iterations 2
smoothSolver:  Solving for Uy, Initial residual = 0.00494557, Final residual = 0.000379787, No Iterations 2
GAMG:  Solving for p, Initial residual = 0.0501624, Final residual = 0.00245736, No Iterations 4
GAMG:  Solving for p, Initial residual = 0.0501624, Final residual = 0.00245736, No Iterations 4
GAMG:  Solving for p, Initial residual = 0.00259185, Final residual = 0.000127529, No Iterations 13
GAMG:  Solving for p, Initial residual = 0.00259185, Final residual = 0.000127529, No Iterations 13
GAMG:  Solving for p, Initial residual = 0.000154284, Final residual = 6.87663e-06, No Iterations 27
GAMG:  Solving for p, Initial residual = 0.000154284, Final residual = 6.87663e-06, No Iterations 27
GAMG:  Solving for p, Initial residual = 1.7793e-05, Final residual = 8.13147e-07, No Iterations 16
time step continuity errors : sum local = 9.91993e-05, global = 8.67298e-06, cumulative = -2.81444e-05
GAMG:  Solving for p, Initial residual = 1.7793e-05, Final residual = 8.13147e-07, No Iterations 16
time step continuity errors : sum local = 9.91993e-05, global = 8.67298e-06, cumulative = -2.81444e-05
smoothSolver:  Solving for omega, Initial residual = 0.00502158, Final residual = 0.000397163, No Iterations 2
smoothSolver:  Solving for omega, Initial residual = 0.00502158, Final residual = 0.000397163, No Iterations 2
smoothSolver:  Solving for k, Initial residual = 0.00178157, Final residual = 9.5925e-05, No Iterations 2
bounding k, min: -0.0138245 max: 1826.65 average: 5.2917
ExecutionTime = 17.05 s  ClockTime = 17 s

forceCoeffs forceCoeffs1 write:
    Coefficient	Total	Pressure	Viscous	Internal
    Cd:	-72.3753	-73.6981	1.32274	0
    Cd(f):	163.186	162.482	0.703269	0
    Cd(r):	-235.561	-236.181	0.619471	0
    Cl:	-398.747	-398.663	-0.0837981	0
    Cl(f):	-99.7151	-99.6897	-0.0254415	0
    Cl(r):	-299.032	-298.973	-0.0583565	0
    CmPitch:	99.6583	99.6418	0.0164575	0
    CmRoll:	199.373	199.331	0.041899	0
    CmYaw:	-36.1877	-36.849	0.66137	0
    Cs:	1.26189e-18	1.26968e-18	-7.79349e-21	0
    Cs(f):	-36.1877	-36.849	0.66137	0
    Cs(r):	36.1877	36.849	-0.66137	0

    writing force and moment coefficient files.

Time = 14

smoothSolver:  Solving for k, Initial residual = 0.00178157, Final residual = 9.5925e-05, No Iterations 2
bounding k, min: -0.0138245 max: 1826.65 average: 5.2917
ExecutionTime = 17.07 s  ClockTime = 17 s

forceCoeffs forceCoeffs1 write:
    Coefficient	Total	Pressure	Viscous	Internal
    Cd:	-72.3753	-73.6981	1.32274	0
    Cd(f):	163.186	162.482	0.703269	0
    Cd(r):	-235.561	-236.181	0.619471	0
    Cl:	-398.747	-398.663	-0.0837981	0
    Cl(f):	-99.7151	-99.6897	-0.0254415	0
    Cl(r):	-299.032	-298.973	-0.0583565	0
    CmPitch:	99.6583	99.6418	0.0164575	0
    CmRoll:	199.373	199.331	0.041899	0
    CmYaw:	-36.1877	-36.849	0.66137	0
    Cs:	1.26189e-18	1.26968e-18	-7.79349e-21	0
    Cs(f):	-36.1877	-36.849	0.66137	0
    Cs(r):	36.1877	36.849	-0.66137	0

    writing force and moment coefficient files.

Time = 14

smoothSolver:  Solving for Ux, Initial residual = 0.00297364, Final residual = 0.000243335, No Iterations 2
smoothSolver:  Solving for Uy, Initial residual = 0.00492813, Final residual = 0.000378075, No Iterations 2
smoothSolver:  Solving for Ux, Initial residual = 0.00297364, Final residual = 0.000243335, No Iterations 2
smoothSolver:  Solving for Uy, Initial residual = 0.00492813, Final residual = 0.000378075, No Iterations 2
GAMG:  Solving for p, Initial residual = 0.0478878, Final residual = 0.00140616, No Iterations 5
GAMG:  Solving for p, Initial residual = 0.0478878, Final residual = 0.00140616, No Iterations 5
GAMG:  Solving for p, Initial residual = 0.00160917, Final residual = 6.87449e-05, No Iterations 17
GAMG:  Solving for p, Initial residual = 0.00160917, Final residual = 6.87449e-05, No Iterations 17
GAMG:  Solving for p, Initial residual = 9.75656e-05, Final residual = 3.91451e-06, No Iterations 22
GAMG:  Solving for p, Initial residual = 9.75656e-05, Final residual = 3.91451e-06, No Iterations 22
GAMG:  Solving for p, Initial residual = 1.25551e-05, Final residual = 5.55475e-07, No Iterations 17
time step continuity errors : sum local = 7.1261e-05, global = 6.70364e-06, cumulative = -2.14407e-05
GAMG:  Solving for p, Initial residual = 1.25551e-05, Final residual = 5.55475e-07, No Iterations 17
time step continuity errors : sum local = 7.1261e-05, global = 6.70364e-06, cumulative = -2.14407e-05
smoothSolver:  Solving for omega, Initial residual = 0.00506707, Final residual = 0.000399208, No Iterations 2
smoothSolver:  Solving for omega, Initial residual = 0.00506707, Final residual = 0.000399208, No Iterations 2
smoothSolver:  Solving for k, Initial residual = 0.00178545, Final residual = 9.62951e-05, No Iterations 2
bounding k, min: -0.0216214 max: 1839.42 average: 5.33015
ExecutionTime = 18.25 s  ClockTime = 18 s

forceCoeffs forceCoeffs1 write:
    Coefficient	Total	Pressure	Viscous	Internal
    Cd:	-73.6344	-74.9538	1.31934	0
    Cd(f):	163.986	163.284	0.702025	0
    Cd(r):	-237.621	-238.238	0.617313	0
    Cl:	-401.607	-401.523	-0.084712	0
    Cl(f):	-100.533	-100.507	-0.025705	0
    Cl(r):	-301.074	-301.015	-0.059007	0
    CmPitch:	100.271	100.254	0.016651	0
    CmRoll:	200.804	200.761	0.042356	0
    CmYaw:	-36.8172	-37.4769	0.659669	0
    Cs:	1.27741e-18	1.28443e-18	-7.01866e-21	0
    Cs(f):	-36.8172	-37.4769	0.659669	0
    Cs(r):	36.8172	37.4769	-0.659669	0

    writing force and moment coefficient files.

Time = 15

smoothSolver:  Solving for k, Initial residual = 0.00178545, Final residual = 9.62951e-05, No Iterations 2
bounding k, min: -0.0216214 max: 1839.42 average: 5.33015
ExecutionTime = 18.26 s  ClockTime = 18 s

forceCoeffs forceCoeffs1 write:
    Coefficient	Total	Pressure	Viscous	Internal
    Cd:	-73.6344	-74.9538	1.31934	0
    Cd(f):	163.986	163.284	0.702025	0
    Cd(r):	-237.621	-238.238	0.617313	0
    Cl:	-401.607	-401.523	-0.084712	0
    Cl(f):	-100.533	-100.507	-0.025705	0
    Cl(r):	-301.074	-301.015	-0.059007	0
    CmPitch:	100.271	100.254	0.016651	0
    CmRoll:	200.804	200.761	0.042356	0
    CmYaw:	-36.8172	-37.4769	0.659669	0
    Cs:	1.27741e-18	1.28443e-18	-7.01866e-21	0
    Cs(f):	-36.8172	-37.4769	0.659669	0
    Cs(r):	36.8172	37.4769	-0.659669	0

    writing force and moment coefficient files.

Time = 15

smoothSolver:  Solving for Ux, Initial residual = 0.00297471, Final residual = 0.000243207, No Iterations 2
smoothSolver:  Solving for Uy, Initial residual = 0.00491627, Final residual = 0.000377045, No Iterations 2
smoothSolver:  Solving for Ux, Initial residual = 0.00297471, Final residual = 0.000243207, No Iterations 2
smoothSolver:  Solving for Uy, Initial residual = 0.00491627, Final residual = 0.000377045, No Iterations 2
GAMG:  Solving for p, Initial residual = 0.0497841, Final residual = 0.00144796, No Iterations 5
GAMG:  Solving for p, Initial residual = 0.0497841, Final residual = 0.00144796, No Iterations 5
GAMG:  Solving for p, Initial residual = 0.00168468, Final residual = 6.9936e-05, No Iterations 17
GAMG:  Solving for p, Initial residual = 0.00168468, Final residual = 6.9936e-05, No Iterations 17
GAMG:  Solving for p, Initial residual = 0.000102113, Final residual = 3.82996e-06, No Iterations 24
GAMG:  Solving for p, Initial residual = 0.000102113, Final residual = 3.82996e-06, No Iterations 24
GAMG:  Solving for p, Initial residual = 1.35677e-05, Final residual = 6.30151e-07, No Iterations 17
time step continuity errors : sum local = 7.27803e-05, global = 5.43333e-06, cumulative = -1.60074e-05
GAMG:  Solving for p, Initial residual = 1.35677e-05, Final residual = 6.30151e-07, No Iterations 17
time step continuity errors : sum local = 7.27803e-05, global = 5.43333e-06, cumulative = -1.60074e-05
smoothSolver:  Solving for omega, Initial residual = 0.00503431, Final residual = 0.000397266, No Iterations 2
smoothSolver:  Solving for omega, Initial residual = 0.00503431, Final residual = 0.000397266, No Iterations 2
smoothSolver:  Solving for k, Initial residual = 0.00178213, Final residual = 9.7623e-05, No Iterations 2
bounding k, min: -0.0267352 max: 1855.62 average: 5.37009
ExecutionTime = 19.48 s  ClockTime = 19 s

smoothSolver:  Solving for k, Initial residual = 0.00178213, Final residual = 9.7623e-05, No Iterations 2
bounding k, min: -0.0267352 max: 1855.62 average: 5.37009
forceCoeffs forceCoeffs1 write:
    Coefficient	Total	Pressure	Viscous	Internal
    Cd:	-74.5736	-75.8895	1.3159	0
    Cd(f):	165.197	164.496	0.700826	0
    Cd(r):	-239.771	-240.386	0.615074	0
    Cl:	-404.968	-404.882	-0.085752	0
    Cl(f):	-101.383	-101.357	-0.0260349	0
    Cl(r):	-303.585	-303.525	-0.0597171	0
    CmPitch:	101.101	101.084	0.0168411	0
    CmRoll:	202.484	202.441	0.042876	0
    CmYaw:	-37.2868	-37.9447	0.65795	0
    Cs:	1.28394e-18	1.29197e-18	-8.02935e-21	0
    Cs(f):	-37.2868	-37.9447	0.65795	0
    Cs(r):	37.2868	37.9447	-0.65795	0

    writing force and moment coefficient files.

Time = 16

ExecutionTime = 19.48 s  ClockTime = 19 s

forceCoeffs forceCoeffs1 write:
    Coefficient	Total	Pressure	Viscous	Internal
    Cd:	-74.5736	-75.8895	1.3159	0
    Cd(f):	165.197	164.496	0.700826	0
    Cd(r):	-239.771	-240.386	0.615074	0
    Cl:	-404.968	-404.882	-0.085752	0
    Cl(f):	-101.383	-101.357	-0.0260349	0
    Cl(r):	-303.585	-303.525	-0.0597171	0
    CmPitch:	101.101	101.084	0.0168411	0
    CmRoll:	202.484	202.441	0.042876	0
    CmYaw:	-37.2868	-37.9447	0.65795	0
    Cs:	1.28394e-18	1.29197e-18	-8.02935e-21	0
    Cs(f):	-37.2868	-37.9447	0.65795	0
    Cs(r):	37.2868	37.9447	-0.65795	0

    writing force and moment coefficient files.

Time = 16

smoothSolver:  Solving for Ux, Initial residual = 0.00297362, Final residual = 0.000242881, No Iterations 2
smoothSolver:  Solving for Uy, Initial residual = 0.00490342, Final residual = 0.000375755, No Iterations 2
smoothSolver:  Solving for Ux, Initial residual = 0.00297362, Final residual = 0.000242881, No Iterations 2
smoothSolver:  Solving for Uy, Initial residual = 0.00490342, Final residual = 0.000375755, No Iterations 2
GAMG:  Solving for p, Initial residual = 0.049466, Final residual = 0.0023431, No Iterations 4
GAMG:  Solving for p, Initial residual = 0.049466, Final residual = 0.0023431, No Iterations 4
GAMG:  Solving for p, Initial residual = 0.00256022, Final residual = 0.000103828, No Iterations 14
GAMG:  Solving for p, Initial residual = 0.00256022, Final residual = 0.000103828, No Iterations 14
GAMG:  Solving for p, Initial residual = 0.000134476, Final residual = 5.60154e-06, No Iterations 28
GAMG:  Solving for p, Initial residual = 0.000134476, Final residual = 5.60154e-06, No Iterations 28
GAMG:  Solving for p, Initial residual = 1.61301e-05, Final residual = 8.06194e-07, No Iterations 20
time step continuity errors : sum local = 9.10519e-05, global = -7.88511e-06, cumulative = -2.38925e-05
smoothSolver:  Solving for omega, Initial residual = 0.00505142, Final residual = 0.000397067, No Iterations 2
GAMG:  Solving for p, Initial residual = 1.61301e-05, Final residual = 8.06194e-07, No Iterations 20
smoothSolver:  Solving for k, Initial residual = 0.00178124, Final residual = 9.8627e-05, No Iterations 2
bounding k, min: -0.00770707 max: 1862.08 average: 5.41103
time step continuity errors : sum local = 9.10519e-05, global = -7.88511e-06, cumulative = -2.38925e-05
ExecutionTime = 21.26 s  ClockTime = 21 s

forceCoeffs forceCoeffs1 write:
    Coefficient	Total	Pressure	Viscous	Internal
    Cd:	-74.5357	-75.8483	1.3126	0
    Cd(f):	167.515	166.815	0.699736	0
    Cd(r):	-242.05	-242.663	0.61286	0
    Cl:	-409.565	-409.478	-0.0868753	0
    Cl(f):	-102.178	-102.151	-0.0263992	0
    Cl(r):	-307.387	-307.327	-0.0604761	0
    CmPitch:	102.605	102.588	0.0170385	0
    CmRoll:	204.783	204.739	0.0434377	0
    CmYaw:	-37.2678	-37.9241	0.656298	0
    Cs:	1.28122e-18	1.28767e-18	-6.45041e-21	0
    Cs(f):	-37.2678	-37.9241	0.656298	0
    Cs(r):	37.2678	37.9241	-0.656298	0

    writing force and moment coefficient files.

Time = 17

smoothSolver:  Solving for omega, Initial residual = 0.00505142, Final residual = 0.000397067, No Iterations 2
smoothSolver:  Solving for k, Initial residual = 0.00178124, Final residual = 9.8627e-05, No Iterations 2
bounding k, min: -0.00770707 max: 1862.08 average: 5.41103
ExecutionTime = 21.37 s  ClockTime = 21 s

forceCoeffs forceCoeffs1 write:
    Coefficient	Total	Pressure	Viscous	Internal
    Cd:	-74.5357	-75.8483	1.3126	0
    Cd(f):	167.515	166.815	0.699736	0
    Cd(r):	-242.05	-242.663	0.61286	0
    Cl:	-409.565	-409.478	-0.0868753	0
    Cl(f):	-102.178	-102.151	-0.0263992	0
    Cl(r):	-307.387	-307.327	-0.0604761	0
    CmPitch:	102.605	102.588	0.0170385	0
    CmRoll:	204.783	204.739	0.0434377	0
    CmYaw:	-37.2678	-37.9241	0.656298	0
    Cs:	1.28122e-18	1.28767e-18	-6.45041e-21	0
    Cs(f):	-37.2678	-37.9241	0.656298	0
    Cs(r):	37.2678	37.9241	-0.656298	0

    writing force and moment coefficient files.

Time = 17

smoothSolver:  Solving for Ux, Initial residual = 0.00297307, Final residual = 0.000242617, No Iterations 2
smoothSolver:  Solving for Uy, Initial residual = 0.0048861, Final residual = 0.000374927, No Iterations 2
smoothSolver:  Solving for Ux, Initial residual = 0.00297307, Final residual = 0.000242617, No Iterations 2
GAMG:  Solving for p, Initial residual = 0.0479621, Final residual = 0.00147717, No Iterations 5
smoothSolver:  Solving for Uy, Initial residual = 0.0048861, Final residual = 0.000374927, No Iterations 2
GAMG:  Solving for p, Initial residual = 0.0479621, Final residual = 0.00147717, No Iterations 5
GAMG:  Solving for p, Initial residual = 0.00171474, Final residual = 8.02567e-05, No Iterations 19
GAMG:  Solving for p, Initial residual = 0.00171474, Final residual = 8.02567e-05, No Iterations 19
GAMG:  Solving for p, Initial residual = 0.000113538, Final residual = 5.06245e-06, No Iterations 28
GAMG:  Solving for p, Initial residual = 0.000113538, Final residual = 5.06245e-06, No Iterations 28
GAMG:  Solving for p, Initial residual = 1.42998e-05, Final residual = 7.14913e-07, No Iterations 20
time step continuity errors : sum local = 8.25202e-05, global = 6.81453e-06, cumulative = -1.7078e-05
GAMG:  Solving for p, Initial residual = 1.42998e-05, Final residual = 7.14913e-07, No Iterations 20
time step continuity errors : sum local = 8.25202e-05, global = 6.81453e-06, cumulative = -1.7078e-05
smoothSolver:  Solving for omega, Initial residual = 0.00505274, Final residual = 0.000396716, No Iterations 2
smoothSolver:  Solving for k, Initial residual = 0.00178365, Final residual = 9.79738e-05, No Iterations 2
bounding k, min: -0.0616521 max: 1871.95 average: 5.45229
smoothSolver:  Solving for omega, Initial residual = 0.00505274, Final residual = 0.000396716, No Iterations 2
ExecutionTime = 23.16 s  ClockTime = 23 s

forceCoeffs forceCoeffs1 write:
    Coefficient	Total	Pressure	Viscous	Internal
    Cd:	-73.4233	-74.7329	1.30957	0
    Cd(f):	170.489	169.79	0.698754	0
    Cd(r):	-243.912	-244.523	0.610811	0
    Cl:	-414.401	-414.313	-0.0879425	0
    Cl(f):	-102.848	-102.821	-0.0267349	0
    Cl(r):	-311.553	-311.492	-0.0612076	0
    CmPitch:	104.353	104.335	0.0172363	0
    CmRoll:	207.201	207.157	0.0439713	0
    CmYaw:	-36.7117	-37.3665	0.654783	0
    Cs:	1.27228e-18	1.27873e-18	-6.44416e-21	0
    Cs(f):	-36.7117	-37.3665	0.654783	0
    Cs(r):	36.7117	37.3665	-0.654783	0

    writing force and moment coefficient files.

Time = 18

smoothSolver:  Solving for k, Initial residual = 0.00178365, Final residual = 9.79738e-05, No Iterations 2
bounding k, min: -0.0616521 max: 1871.95 average: 5.45229
ExecutionTime = 23.16 s  ClockTime = 23 s

forceCoeffs forceCoeffs1 write:
    Coefficient	Total	Pressure	Viscous	Internal
    Cd:	-73.4233	-74.7329	1.30957	0
    Cd(f):	170.489	169.79	0.698754	0
    Cd(r):	-243.912	-244.523	0.610811	0
    Cl:	-414.401	-414.313	-0.0879425	0
    Cl(f):	-102.848	-102.821	-0.0267349	0
    Cl(r):	-311.553	-311.492	-0.0612076	0
    CmPitch:	104.353	104.335	0.0172363	0
    CmRoll:	207.201	207.157	0.0439713	0
    CmYaw:	-36.7117	-37.3665	0.654783	0
    Cs:	1.27228e-18	1.27873e-18	-6.44416e-21	0
    Cs(f):	-36.7117	-37.3665	0.654783	0
    Cs(r):	36.7117	37.3665	-0.654783	0

    writing force and moment coefficient files.

Time = 18

smoothSolver:  Solving for Ux, Initial residual = 0.00297386, Final residual = 0.000243009, No Iterations 2
smoothSolver:  Solving for Uy, Initial residual = 0.00486473, Final residual = 0.000373043, No Iterations 2
smoothSolver:  Solving for Ux, Initial residual = 0.00297386, Final residual = 0.000243009, No Iterations 2
smoothSolver:  Solving for Uy, Initial residual = 0.00486473, Final residual = 0.000373043, No Iterations 2
GAMG:  Solving for p, Initial residual = 0.0466064, Final residual = 0.00159047, No Iterations 5
GAMG:  Solving for p, Initial residual = 0.0466064, Final residual = 0.00159047, No Iterations 5
GAMG:  Solving for p, Initial residual = 0.00183283, Final residual = 8.41342e-05, No Iterations 21
GAMG:  Solving for p, Initial residual = 0.00183283, Final residual = 8.41342e-05, No Iterations 21
GAMG:  Solving for p, Initial residual = 0.000119243, Final residual = 4.81363e-06, No Iterations 28
GAMG:  Solving for p, Initial residual = 0.000119243, Final residual = 4.81363e-06, No Iterations 28
GAMG:  Solving for p, Initial residual = 1.44595e-05, Final residual = 6.12916e-07, No Iterations 22
time step continuity errors : sum local = 7.2333e-05, global = 5.52671e-06, cumulative = -1.15513e-05
GAMG:  Solving for p, Initial residual = 1.44595e-05, Final residual = 6.12916e-07, No Iterations 22
time step continuity errors : sum local = 7.2333e-05, global = 5.52671e-06, cumulative = -1.15513e-05
smoothSolver:  Solving for omega, Initial residual = 0.00503395, Final residual = 0.000395291, No Iterations 2
smoothSolver:  Solving for k, Initial residual = 0.0017838, Final residual = 9.81661e-05, No Iterations 2
bounding k, min: -0.134586 max: 1880.76 average: 5.49564
ExecutionTime = 24.7 s  ClockTime = 24 s

smoothSolver:  Solving for omega, Initial residual = 0.00503395, Final residual = 0.000395291, No Iterations 2
forceCoeffs forceCoeffs1 write:
    Coefficient	Total	Pressure	Viscous	Internal
    Cd:	-71.8969	-73.2038	1.3069	0
    Cd(f):	173.492	172.794	0.69796	0
    Cd(r):	-245.389	-245.998	0.608944	0
    Cl:	-418.881	-418.792	-0.0890163	0
    Cl(f):	-103.482	-103.455	-0.0270661	0
    Cl(r):	-315.399	-315.337	-0.0619502	0
    CmPitch:	105.958	105.941	0.0174421	0
    CmRoll:	209.44	209.396	0.0445082	0
    CmYaw:	-35.9485	-36.6019	0.653452	0
    Cs:	1.26369e-18	1.26912e-18	-5.43187e-21	0
    Cs(f):	-35.9485	-36.6019	0.653452	0
    Cs(r):	35.9485	36.6019	-0.653452	0

    writing force and moment coefficient files.

Time = 19

smoothSolver:  Solving for k, Initial residual = 0.0017838, Final residual = 9.81661e-05, No Iterations 2
bounding k, min: -0.134586 max: 1880.76 average: 5.49564
ExecutionTime = 24.73 s  ClockTime = 24 s

forceCoeffs forceCoeffs1 write:
    Coefficient	Total	Pressure	Viscous	Internal
    Cd:	-71.8969	-73.2038	1.3069	0
    Cd(f):	173.492	172.794	0.69796	0
    Cd(r):	-245.389	-245.998	0.608944	0
    Cl:	-418.881	-418.792	-0.0890163	0
    Cl(f):	-103.482	-103.455	-0.0270661	0
    Cl(r):	-315.399	-315.337	-0.0619502	0
    CmPitch:	105.958	105.941	0.0174421	0
    CmRoll:	209.44	209.396	0.0445082	0
    CmYaw:	-35.9485	-36.6019	0.653452	0
    Cs:	1.26369e-18	1.26912e-18	-5.43187e-21	0
    Cs(f):	-35.9485	-36.6019	0.653452	0
    Cs(r):	35.9485	36.6019	-0.653452	0

    writing force and moment coefficient files.

Time = 19

smoothSolver:  Solving for Ux, Initial residual = 0.00297268, Final residual = 0.000242981, No Iterations 2
smoothSolver:  Solving for Uy, Initial residual = 0.00484404, Final residual = 0.000371166, No Iterations 2
smoothSolver:  Solving for Ux, Initial residual = 0.00297268, Final residual = 0.000242981, No Iterations 2
smoothSolver:  Solving for Uy, Initial residual = 0.00484404, Final residual = 0.000371166, No Iterations 2
GAMG:  Solving for p, Initial residual = 0.0463195, Final residual = 0.00163677, No Iterations 5
GAMG:  Solving for p, Initial residual = 0.0463195, Final residual = 0.00163677, No Iterations 5
GAMG:  Solving for p, Initial residual = 0.00187677, Final residual = 8.14495e-05, No Iterations 21
GAMG:  Solving for p, Initial residual = 0.00187677, Final residual = 8.14495e-05, No Iterations 21
GAMG:  Solving for p, Initial residual = 0.000115503, Final residual = 4.98668e-06, No Iterations 26
GAMG:  Solving for p, Initial residual = 0.000115503, Final residual = 4.98668e-06, No Iterations 26
GAMG:  Solving for p, Initial residual = 1.43865e-05, Final residual = 4.99191e-07, No Iterations 19
time step continuity errors : sum local = 5.86849e-05, global = 4.46375e-06, cumulative = -7.08751e-06
GAMG:  Solving for p, Initial residual = 1.43865e-05, Final residual = 4.99191e-07, No Iterations 19
time step continuity errors : sum local = 5.86849e-05, global = 4.46375e-06, cumulative = -7.08751e-06
smoothSolver:  Solving for omega, Initial residual = 0.00503864, Final residual = 0.000396268, No Iterations 2
smoothSolver:  Solving for omega, Initial residual = 0.00503864, Final residual = 0.000396268, No Iterations 2
smoothSolver:  Solving for k, Initial residual = 0.00177772, Final residual = 9.70284e-05, No Iterations 2
bounding k, min: -0.0758505 max: 1881.73 average: 5.54033
ExecutionTime = 26.69 s  ClockTime = 26 s

forceCoeffs forceCoeffs1 write:
    Coefficient	Total	Pressure	Viscous	Internal
    Cd:	-70.5737	-71.8782	1.30456	0
    Cd(f):	175.844	175.146	0.697328	0
    Cd(r):	-246.418	-247.025	0.60723	0
    Cl:	-422.261	-422.171	-0.090098	0
    Cl(f):	-104.151	-104.123	-0.0274002	0
    Cl(r):	-318.111	-318.048	-0.0626978	0
    CmPitch:	106.98	106.962	0.0176488	0
    CmRoll:	211.131	211.086	0.045049	0
    CmYaw:	-35.2868	-35.9391	0.652279	0
    Cs:	1.25754e-18	1.26437e-18	-6.8257e-21	0
    Cs(f):	-35.2868	-35.9391	0.652279	0
    Cs(r):	35.2868	35.9391	-0.652279	0

    writing force and moment coefficient files.

Time = 20

smoothSolver:  Solving for k, Initial residual = 0.00177772, Final residual = 9.70284e-05, No Iterations 2
bounding k, min: -0.0758505 max: 1881.73 average: 5.54033
ExecutionTime = 26.68 s  ClockTime = 26 s

forceCoeffs forceCoeffs1 write:
    Coefficient	Total	Pressure	Viscous	Internal
    Cd:	-70.5737	-71.8782	1.30456	0
    Cd(f):	175.844	175.146	0.697328	0
    Cd(r):	-246.418	-247.025	0.60723	0
    Cl:	-422.261	-422.171	-0.090098	0
    Cl(f):	-104.151	-104.123	-0.0274002	0
    Cl(r):	-318.111	-318.048	-0.0626978	0
    CmPitch:	106.98	106.962	0.0176488	0
    CmRoll:	211.131	211.086	0.045049	0
    CmYaw:	-35.2868	-35.9391	0.652279	0
    Cs:	1.25754e-18	1.26437e-18	-6.8257e-21	0
    Cs(f):	-35.2868	-35.9391	0.652279	0
    Cs(r):	35.2868	35.9391	-0.652279	0

    writing force and moment coefficient files.

Time = 20

smoothSolver:  Solving for Ux, Initial residual = 0.0029738, Final residual = 0.000242939, No Iterations 2
smoothSolver:  Solving for Uy, Initial residual = 0.00482609, Final residual = 0.000369447, No Iterations 2
smoothSolver:  Solving for Ux, Initial residual = 0.0029738, Final residual = 0.000242939, No Iterations 2
smoothSolver:  Solving for Uy, Initial residual = 0.00482609, Final residual = 0.000369447, No Iterations 2
GAMG:  Solving for p, Initial residual = 0.0464323, Final residual = 0.00231994, No Iterations 4
GAMG:  Solving for p, Initial residual = 0.0464323, Final residual = 0.00231994, No Iterations 4
GAMG:  Solving for p, Initial residual = 0.00249676, Final residual = 0.000118162, No Iterations 17
GAMG:  Solving for p, Initial residual = 0.00249676, Final residual = 0.000118162, No Iterations 17
GAMG:  Solving for p, Initial residual = 0.000146431, Final residual = 6.71884e-06, No Iterations 27
GAMG:  Solving for p, Initial residual = 0.000146431, Final residual = 6.71884e-06, No Iterations 27
GAMG:  Solving for p, Initial residual = 1.56668e-05, Final residual = 5.97582e-07, No Iterations 18
time step continuity errors : sum local = 7.45027e-05, global = 5.57527e-06, cumulative = -1.51223e-06
GAMG:  Solving for p, Initial residual = 1.56668e-05, Final residual = 5.97582e-07, No Iterations 18
time step continuity errors : sum local = 7.45027e-05, global = 5.57527e-06, cumulative = -1.51223e-06
smoothSolver:  Solving for omega, Initial residual = 0.00503938, Final residual = 0.000394317, No Iterations 2
smoothSolver:  Solving for k, Initial residual = 0.00178074, Final residual = 9.54824e-05, No Iterations 2
bounding k, min: -0.0555744 max: 1887.84 average: 5.58641
ExecutionTime = 28.06 s  ClockTime = 28 s

smoothSolver:  Solving for omega, Initial residual = 0.00503938, Final residual = 0.000394317, No Iterations 2
forceCoeffs forceCoeffs1 write:
    Coefficient	Total	Pressure	Viscous	Internal
    Cd:	-69.9768	-71.2792	1.30242	0
    Cd(f):	177.054	176.357	0.696901	0
    Cd(r):	-247.031	-247.636	0.605522	0
    Cl:	-424.084	-423.993	-0.0913788	0
    Cl(f):	-104.831	-104.803	-0.0278282	0
    Cl(r):	-319.253	-319.19	-0.0635507	0
    CmPitch:	107.211	107.193	0.0178612	0
    CmRoll:	212.042	211.997	0.0456894	0
    CmYaw:	-34.9884	-35.6396	0.651211	0
    Cs:	1.26345e-18	1.26886e-18	-5.40881e-21	0
    Cs(f):	-34.9884	-35.6396	0.651211	0
    Cs(r):	34.9884	35.6396	-0.651211	0

    writing force and moment coefficient files.

Time = 21

smoothSolver:  Solving for k, Initial residual = 0.00178074, Final residual = 9.54824e-05, No Iterations 2
bounding k, min: -0.0555744 max: 1887.84 average: 5.58641
ExecutionTime = 28.03 s  ClockTime = 28 s

forceCoeffs forceCoeffs1 write:
    Coefficient	Total	Pressure	Viscous	Internal
    Cd:	-69.9768	-71.2792	1.30242	0
    Cd(f):	177.054	176.357	0.696901	0
    Cd(r):	-247.031	-247.636	0.605522	0
    Cl:	-424.084	-423.993	-0.0913788	0
    Cl(f):	-104.831	-104.803	-0.0278282	0
    Cl(r):	-319.253	-319.19	-0.0635507	0
    CmPitch:	107.211	107.193	0.0178612	0
    CmRoll:	212.042	211.997	0.0456894	0
    CmYaw:	-34.9884	-35.6396	0.651211	0
    Cs:	1.26345e-18	1.26886e-18	-5.40881e-21	0
    Cs(f):	-34.9884	-35.6396	0.651211	0
    Cs(r):	34.9884	35.6396	-0.651211	0

    writing force and moment coefficient files.

Time = 21

smoothSolver:  Solving for Ux, Initial residual = 0.00297106, Final residual = 0.000242645, No Iterations 2
smoothSolver:  Solving for Uy, Initial residual = 0.00480624, Final residual = 0.000368213, No Iterations 2
smoothSolver:  Solving for Ux, Initial residual = 0.00297106, Final residual = 0.000242645, No Iterations 2
smoothSolver:  Solving for Uy, Initial residual = 0.00480624, Final residual = 0.000368213, No Iterations 2
GAMG:  Solving for p, Initial residual = 0.0325078, Final residual = 0.00154936, No Iterations 4
GAMG:  Solving for p, Initial residual = 0.0325078, Final residual = 0.00154936, No Iterations 4
GAMG:  Solving for p, Initial residual = 0.00166407, Final residual = 6.96575e-05, No Iterations 16
GAMG:  Solving for p, Initial residual = 0.00166407, Final residual = 6.96575e-05, No Iterations 16
GAMG:  Solving for p, Initial residual = 8.84646e-05, Final residual = 3.07453e-06, No Iterations 24
GAMG:  Solving for p, Initial residual = 8.84646e-05, Final residual = 3.07453e-06, No Iterations 24
GAMG:  Solving for p, Initial residual = 9.2757e-06, Final residual = 3.34003e-07, No Iterations 17
time step continuity errors : sum local = 5.96505e-05, global = 5.20181e-06, cumulative = 3.68958e-06
GAMG:  Solving for p, Initial residual = 9.2757e-06, Final residual = 3.34003e-07, No Iterations 17
time step continuity errors : sum local = 5.96505e-05, global = 5.20181e-06, cumulative = 3.68958e-06
smoothSolver:  Solving for omega, Initial residual = 0.00506238, Final residual = 0.000393376, No Iterations 2
smoothSolver:  Solving for omega, Initial residual = 0.00506238, Final residual = 0.000393376, No Iterations 2
smoothSolver:  Solving for k, Initial residual = 0.0017905, Final residual = 9.62917e-05, No Iterations 2
bounding k, min: -0.103454 max: 1891.29 average: 5.63294
ExecutionTime = 29.26 s  ClockTime = 29 s

smoothSolver:  Solving for k, Initial residual = 0.0017905, Final residual = 9.62917e-05, No Iterations 2
forceCoeffs forceCoeffs1 write:
    Coefficient	Total	Pressure	Viscous	Internal
bounding k, min: -0.103454 max: 1891.29 average: 5.63294
    Cd:	-70.2383	-71.5387	1.30036	0
    Cd(f):	177.261	176.565	0.696501	0
    Cd(r):	-247.5	-248.104	0.603859	0
    Cl:	-424.761	-424.669	-0.0926426	0
    Cl(f):	-105.518	-105.49	-0.0282455	0
    Cl(r):	-319.243	-319.179	-0.064397	0
    CmPitch:	106.863	106.845	0.0180758	0
    CmRoll:	212.381	212.334	0.0463213	0
    CmYaw:	-35.1192	-35.7693	0.65018	0
    Cs:	1.2756e-18	1.28194e-18	-6.33429e-21	0
    Cs(f):	-35.1192	-35.7693	0.65018	0
    Cs(r):	35.1192	35.7693	-0.65018	0

    writing force and moment coefficient files.

Time = 22

ExecutionTime = 29.22 s  ClockTime = 29 s

forceCoeffs forceCoeffs1 write:
    Coefficient	Total	Pressure	Viscous	Internal
    Cd:	-70.2383	-71.5387	1.30036	0
    Cd(f):	177.261	176.565	0.696501	0
    Cd(r):	-247.5	-248.104	0.603859	0
    Cl:	-424.761	-424.669	-0.0926426	0
    Cl(f):	-105.518	-105.49	-0.0282455	0
    Cl(r):	-319.243	-319.179	-0.064397	0
    CmPitch:	106.863	106.845	0.0180758	0
    CmRoll:	212.381	212.334	0.0463213	0
    CmYaw:	-35.1192	-35.7693	0.65018	0
    Cs:	1.2756e-18	1.28194e-18	-6.33429e-21	0
    Cs(f):	-35.1192	-35.7693	0.65018	0
    Cs(r):	35.1192	35.7693	-0.65018	0

    writing force and moment coefficient files.

Time = 22

smoothSolver:  Solving for Ux, Initial residual = 0.00297049, Final residual = 0.000242791, No Iterations 2
smoothSolver:  Solving for Uy, Initial residual = 0.00479011, Final residual = 0.000366802, No Iterations 2
smoothSolver:  Solving for Ux, Initial residual = 0.00297049, Final residual = 0.000242791, No Iterations 2
smoothSolver:  Solving for Uy, Initial residual = 0.00479011, Final residual = 0.000366802, No Iterations 2
GAMG:  Solving for p, Initial residual = 0.0289143, Final residual = 0.00137794, No Iterations 4
GAMG:  Solving for p, Initial residual = 0.0289143, Final residual = 0.00137794, No Iterations 4
GAMG:  Solving for p, Initial residual = 0.00147557, Final residual = 7.04088e-05, No Iterations 14
GAMG:  Solving for p, Initial residual = 0.00147557, Final residual = 7.04088e-05, No Iterations 14
GAMG:  Solving for p, Initial residual = 8.58894e-05, Final residual = 3.46955e-06, No Iterations 24
GAMG:  Solving for p, Initial residual = 8.58894e-05, Final residual = 3.46955e-06, No Iterations 24
GAMG:  Solving for p, Initial residual = 9.78051e-06, Final residual = 4.14845e-07, No Iterations 25
time step continuity errors : sum local = 8.20415e-05, global = 8.19513e-06, cumulative = 1.18847e-05
GAMG:  Solving for p, Initial residual = 9.78051e-06, Final residual = 4.14845e-07, No Iterations 25
time step continuity errors : sum local = 8.20415e-05, global = 8.19513e-06, cumulative = 1.18847e-05
smoothSolver:  Solving for omega, Initial residual = 0.00503628, Final residual = 0.000391935, No Iterations 2
smoothSolver:  Solving for omega, Initial residual = 0.00503628, Final residual = 0.000391935, No Iterations 2
smoothSolver:  Solving for k, Initial residual = 0.00179249, Final residual = 9.60029e-05, No Iterations 2
bounding k, min: -0.145747 max: 1888.44 average: 5.68209
ExecutionTime = 30.54 s  ClockTime = 30 s

smoothSolver:  Solving for k, Initial residual = 0.00179249, Final residual = 9.60029e-05, No Iterations 2
bounding k, min: -0.145747 max: 1888.44 average: 5.68209
ExecutionTime = 30.48 s  ClockTime = 30 s

forceCoeffs forceCoeffs1 write:
    Coefficient	Total	Pressure	Viscous	Internal
    Cd:	-71.2016	-72.4999	1.29827	0
    Cd(f):	177.022	176.326	0.696032	0
    Cd(r):	-248.223	-248.826	0.60224	0
    Cl:	-425.245	-425.152	-0.0937918	0
    Cl(f):	-106.199	-106.17	-0.0286061	0
    Cl(r):	-319.047	-318.981	-0.0651857	0
    CmPitch:	106.424	106.406	0.0182898	0
    CmRoll:	212.623	212.576	0.0468959	0
    CmYaw:	-35.6008	-36.2499	0.649136	0
    Cs:	1.29209e-18	1.29804e-18	-5.94416e-21	0
    Cs(f):	-35.6008	-36.2499	0.649136	0
    Cs(r):	35.6008	36.2499	-0.649136	0

    writing force and moment coefficient files.

Time = 23

forceCoeffs forceCoeffs1 write:
    Coefficient	Total	Pressure	Viscous	Internal
    Cd:	-71.2016	-72.4999	1.29827	0
    Cd(f):	177.022	176.326	0.696032	0
    Cd(r):	-248.223	-248.826	0.60224	0
    Cl:	-425.245	-425.152	-0.0937918	0
    Cl(f):	-106.199	-106.17	-0.0286061	0
    Cl(r):	-319.047	-318.981	-0.0651857	0
    CmPitch:	106.424	106.406	0.0182898	0
    CmRoll:	212.623	212.576	0.0468959	0
    CmYaw:	-35.6008	-36.2499	0.649136	0
    Cs:	1.29209e-18	1.29804e-18	-5.94416e-21	0
    Cs(f):	-35.6008	-36.2499	0.649136	0
    Cs(r):	35.6008	36.2499	-0.649136	0

    writing force and moment coefficient files.

Time = 23

smoothSolver:  Solving for Ux, Initial residual = 0.002971, Final residual = 0.000242956, No Iterations 2
smoothSolver:  Solving for Ux, Initial residual = 0.002971, Final residual = 0.000242956, No Iterations 2
smoothSolver:  Solving for Uy, Initial residual = 0.0047799, Final residual = 0.000365706, No Iterations 2
smoothSolver:  Solving for Uy, Initial residual = 0.0047799, Final residual = 0.000365706, No Iterations 2
GAMG:  Solving for p, Initial residual = 0.0475547, Final residual = 0.00236657, No Iterations 4
GAMG:  Solving for p, Initial residual = 0.0475547, Final residual = 0.00236657, No Iterations 4
GAMG:  Solving for p, Initial residual = 0.00250946, Final residual = 0.000113556, No Iterations 15
GAMG:  Solving for p, Initial residual = 0.00250946, Final residual = 0.000113556, No Iterations 15
GAMG:  Solving for p, Initial residual = 0.000139844, Final residual = 5.65857e-06, No Iterations 26
GAMG:  Solving for p, Initial residual = 0.000139844, Final residual = 5.65857e-06, No Iterations 26
GAMG:  Solving for p, Initial residual = 1.70885e-05, Final residual = 5.69407e-07, No Iterations 17
GAMG:  Solving for p, Initial residual = 1.70885e-05, Final residual = 5.69407e-07, No Iterations 17
time step continuity errors : sum local = 6.59774e-05, global = 5.65199e-06, cumulative = 1.75367e-05
time step continuity errors : sum local = 6.59774e-05, global = 5.65199e-06, cumulative = 1.75367e-05
smoothSolver:  Solving for omega, Initial residual = 0.00505386, Final residual = 0.000393443, No Iterations 2
smoothSolver:  Solving for omega, Initial residual = 0.00505386, Final residual = 0.000393443, No Iterations 2
smoothSolver:  Solving for k, Initial residual = 0.00179659, Final residual = 9.69277e-05, No Iterations 2
bounding k, min: -0.0281721 max: 1888.84 average: 5.73268
smoothSolver:  Solving for k, Initial residual = 0.00179659, Final residual = 9.69277e-05, No Iterations 2
bounding k, min: -0.0281721 max: 1888.84 average: 5.73268
ExecutionTime = 31.78 s  ClockTime = 31 s

ExecutionTime = 31.71 s  ClockTime = 31 s

[...]
    Cd(r):	-352.675	-353.102	0.426849	0
    Cl:	-559.727	-559.504	-0.222975	0
    Cl(f):	-139.219	-139.147	-0.0721317	0
    Cl(r):	-420.509	-420.358	-0.150843	0
    CmPitch:	140.645	140.606	0.0393557	0
    CmRoll:	279.864	279.752	0.111487	0
    CmYaw:	-72.8117	-73.3501	0.538337	0
    Cs:	2.11915e-18	2.1552e-18	-3.60535e-20	0
    Cs(f):	-72.8117	-73.3501	0.538337	0
    Cs(r):	72.8117	73.3501	-0.538337	0

    writing force and moment coefficient files.

Time = 95

GAMG:  Solving for p, Initial residual = 0.00185297, Final residual = 7.85546e-05, No Iterations 17
smoothSolver:  Solving for Ux, Initial residual = 0.0030981, Final residual = 0.000246146, No Iterations 2
smoothSolver:  Solving for Uy, Initial residual = 0.00397401, Final residual = 0.000291671, No Iterations 2
GAMG:  Solving for p, Initial residual = 0.0482594, Final residual = 0.00170793, No Iterations 5
GAMG:  Solving for p, Initial residual = 0.000110365, Final residual = 4.80926e-06, No Iterations 20
GAMG:  Solving for p, Initial residual = 0.00185297, Final residual = 7.85546e-05, No Iterations 17
GAMG:  Solving for p, Initial residual = 1.6663e-05, Final residual = 6.93539e-07, No Iterations 21
time step continuity errors : sum local = 7.36725e-05, global = -5.43442e-06, cumulative = 0.000244854
GAMG:  Solving for p, Initial residual = 0.000110365, Final residual = 4.80926e-06, No Iterations 20
smoothSolver:  Solving for omega, Initial residual = 0.00446427, Final residual = 0.000325245, No Iterations 2
smoothSolver:  Solving for k, Initial residual = 0.00235124, Final residual = 0.000132518, No Iterations 2
bounding k, min: -0.984173 max: 5431.42 average: 15.0109
ExecutionTime = 137.11 s  ClockTime = 137 s

forceCoeffs forceCoeffs1 write:
    Coefficient	Total	Pressure	Viscous	Internal
    Cd:	-146.641	-147.714	1.07295	0
    Cd(f):	207.627	206.977	0.649356	0
    Cd(r):	-354.268	-354.692	0.423593	0
    Cl:	-561.895	-561.669	-0.225763	0
    Cl(f):	-139.347	-139.274	-0.0731469	0
    Cl(r):	-422.548	-422.395	-0.152616	0
    CmPitch:	141.6	141.561	0.0397345	0
    CmRoll:	280.947	280.835	0.112881	0
    CmYaw:	-73.3207	-73.8572	0.536474	0
    Cs:	2.1185e-18	2.15341e-18	-3.49132e-20	0
    Cs(f):	-73.3207	-73.8572	0.536474	0
    Cs(r):	73.3207	73.8572	-0.536474	0

    writing force and moment coefficient files.

Time = 96

smoothSolver:  Solving for Ux, Initial residual = 0.00310076, Final residual = 0.000245848, No Iterations 2
smoothSolver:  Solving for Uy, Initial residual = 0.00396152, Final residual = 0.000290221, No Iterations 2
GAMG:  Solving for p, Initial residual = 1.6663e-05, Final residual = 6.93539e-07, No Iterations 21
time step continuity errors : sum local = 7.36725e-05, global = -5.43442e-06, cumulative = 0.000244854
GAMG:  Solving for p, Initial residual = 0.0472855, Final residual = 0.00166605, No Iterations 5
smoothSolver:  Solving for omega, Initial residual = 0.00446427, Final residual = 0.000325245, No Iterations 2
smoothSolver:  Solving for k, Initial residual = 0.00235124, Final residual = 0.000132518, No Iterations 2
bounding k, min: -0.984173 max: 5431.42 average: 15.0109
ExecutionTime = 136.98 s  ClockTime = 137 s

forceCoeffs forceCoeffs1 write:
    Coefficient	Total	Pressure	Viscous	Internal
    Cd:	-146.641	-147.714	1.07295	0
    Cd(f):	207.627	206.977	0.649356	0
    Cd(r):	-354.268	-354.692	0.423593	0
    Cl:	-561.895	-561.669	-0.225763	0
    Cl(f):	-139.347	-139.274	-0.0731469	0
    Cl(r):	-422.548	-422.395	-0.152616	0
    CmPitch:	141.6	141.561	0.0397345	0
    CmRoll:	280.947	280.835	0.112881	0
    CmYaw:	-73.3207	-73.8572	0.536474	0
    Cs:	2.1185e-18	2.15341e-18	-3.49132e-20	0
    Cs(f):	-73.3207	-73.8572	0.536474	0
    Cs(r):	73.3207	73.8572	-0.536474	0

    writing force and moment coefficient files.

Time = 96

GAMG:  Solving for p, Initial residual = 0.00180948, Final residual = 8.12865e-05, No Iterations 17
smoothSolver:  Solving for Ux, Initial residual = 0.00310076, Final residual = 0.000245848, No Iterations 2
smoothSolver:  Solving for Uy, Initial residual = 0.00396152, Final residual = 0.000290221, No Iterations 2
GAMG:  Solving for p, Initial residual = 0.0472855, Final residual = 0.00166605, No Iterations 5
GAMG:  Solving for p, Initial residual = 0.000116578, Final residual = 4.47365e-06, No Iterations 20
GAMG:  Solving for p, Initial residual = 0.00180948, Final residual = 8.12865e-05, No Iterations 17
GAMG:  Solving for p, Initial residual = 1.59886e-05, Final residual = 6.84262e-07, No Iterations 21
time step continuity errors : sum local = 7.23992e-05, global = -5.33465e-06, cumulative = 0.000239519
smoothSolver:  Solving for omega, Initial residual = 0.00444272, Final residual = 0.000324467, No Iterations 2
GAMG:  Solving for p, Initial residual = 0.000116578, Final residual = 4.47365e-06, No Iterations 20
smoothSolver:  Solving for k, Initial residual = 0.00238577, Final residual = 0.000134318, No Iterations 2
bounding k, min: -0.556444 max: 5732.64 average: 15.1983
ExecutionTime = 138.43 s  ClockTime = 138 s

forceCoeffs forceCoeffs1 write:
    Coefficient	Total	Pressure	Viscous	Internal
    Cd:	-147.584	-148.653	1.06921	0
    Cd(f):	208.696	208.047	0.648914	0
    Cd(r):	-356.28	-356.701	0.420295	0
    Cl:	-564.976	-564.748	-0.228619	0
    Cl(f):	-139.48	-139.406	-0.0741986	0
    Cl(r):	-425.496	-425.342	-0.15442	0
    CmPitch:	143.008	142.968	0.0401109	0
    CmRoll:	282.488	282.374	0.11431	0
    CmYaw:	-73.792	-74.3266	0.534604	0
    Cs:	2.11863e-18	2.15338e-18	-3.47517e-20	0
    Cs(f):	-73.792	-74.3266	0.534604	0
    Cs(r):	73.792	74.3266	-0.534604	0

    writing force and moment coefficient files.

Time = 97

smoothSolver:  Solving for Ux, Initial residual = 0.00310304, Final residual = 0.000245916, No Iterations 2
smoothSolver:  Solving for Uy, Initial residual = 0.00395004, Final residual = 0.000289126, No Iterations 2
GAMG:  Solving for p, Initial residual = 1.59886e-05, Final residual = 6.84262e-07, No Iterations 21
time step continuity errors : sum local = 7.23992e-05, global = -5.33465e-06, cumulative = 0.000239519
GAMG:  Solving for p, Initial residual = 0.0460012, Final residual = 0.00166592, No Iterations 5
smoothSolver:  Solving for omega, Initial residual = 0.00444272, Final residual = 0.000324467, No Iterations 2
smoothSolver:  Solving for k, Initial residual = 0.00238577, Final residual = 0.000134318, No Iterations 2
bounding k, min: -0.556444 max: 5732.64 average: 15.1983
ExecutionTime = 138.24 s  ClockTime = 139 s

forceCoeffs forceCoeffs1 write:
    Coefficient	Total	Pressure	Viscous	Internal
    Cd:	-147.584	-148.653	1.06921	0
    Cd(f):	208.696	208.047	0.648914	0
    Cd(r):	-356.28	-356.701	0.420295	0
    Cl:	-564.976	-564.748	-0.228619	0
    Cl(f):	-139.48	-139.406	-0.0741986	0
    Cl(r):	-425.496	-425.342	-0.15442	0
    CmPitch:	143.008	142.968	0.0401109	0
    CmRoll:	282.488	282.374	0.11431	0
    CmYaw:	-73.792	-74.3266	0.534604	0
    Cs:	2.11863e-18	2.15338e-18	-3.47517e-20	0
    Cs(f):	-73.792	-74.3266	0.534604	0
    Cs(r):	73.792	74.3266	-0.534604	0

    writing force and moment coefficient files.

Time = 97

smoothSolver:  Solving for Ux, Initial residual = 0.00310304, Final residual = 0.000245916, No Iterations 2
smoothSolver:  Solving for Uy, Initial residual = 0.00395004, Final residual = 0.000289126, No Iterations 2
GAMG:  Solving for p, Initial residual = 0.00180987, Final residual = 8.12833e-05, No Iterations 17
GAMG:  Solving for p, Initial residual = 0.0460012, Final residual = 0.00166592, No Iterations 5
GAMG:  Solving for p, Initial residual = 0.000117218, Final residual = 5.49051e-06, No Iterations 18
GAMG:  Solving for p, Initial residual = 0.00180987, Final residual = 8.12833e-05, No Iterations 17
GAMG:  Solving for p, Initial residual = 1.58242e-05, Final residual = 7.27227e-07, No Iterations 19
time step continuity errors : sum local = 7.64524e-05, global = -5.83976e-06, cumulative = 0.000233679
GAMG:  Solving for p, Initial residual = 0.000117218, Final residual = 5.49051e-06, No Iterations 18
smoothSolver:  Solving for omega, Initial residual = 0.00443469, Final residual = 0.000322788, No Iterations 2
smoothSolver:  Solving for k, Initial residual = 0.00241936, Final residual = 0.000136226, No Iterations 2
bounding k, min: -0.346176 max: 6015.9 average: 15.3863
ExecutionTime = 139.68 s  ClockTime = 139 s

forceCoeffs forceCoeffs1 write:
    Coefficient	Total	Pressure	Viscous	Internal
    Cd:	-148.436	-149.501	1.06546	0
    Cd(f):	209.818	209.17	0.648494	0
    Cd(r):	-358.254	-358.671	0.416965	0
    Cl:	-568.072	-567.84	-0.231529	0
    Cl(f):	-139.609	-139.534	-0.0752794	0
    Cl(r):	-428.463	-428.306	-0.15625	0
    CmPitch:	144.427	144.386	0.0404851	0
    CmRoll:	284.036	283.92	0.115765	0
    CmYaw:	-74.2178	-74.7505	0.53273	0
    Cs:	2.11979e-18	2.15352e-18	-3.37314e-20	0
    Cs(f):	-74.2178	-74.7505	0.53273	0
    Cs(r):	74.2178	74.7505	-0.53273	0

    writing force and moment coefficient files.

Time = 98

smoothSolver:  Solving for Ux, Initial residual = 0.00310527, Final residual = 0.000245762, No Iterations 2
smoothSolver:  Solving for Uy, Initial residual = 0.00393929, Final residual = 0.000288195, No Iterations 2
GAMG:  Solving for p, Initial residual = 1.58242e-05, Final residual = 7.27227e-07, No Iterations 19
time step continuity errors : sum local = 7.64524e-05, global = -5.83976e-06, cumulative = 0.000233679
GAMG:  Solving for p, Initial residual = 0.0457729, Final residual = 0.00164266, No Iterations 5
smoothSolver:  Solving for omega, Initial residual = 0.00443469, Final residual = 0.000322788, No Iterations 2
smoothSolver:  Solving for k, Initial residual = 0.00241936, Final residual = 0.000136226, No Iterations 2
bounding k, min: -0.346176 max: 6015.9 average: 15.3863
ExecutionTime = 139.53 s  ClockTime = 140 s

forceCoeffs forceCoeffs1 write:
    Coefficient	Total	Pressure	Viscous	Internal
    Cd:	-148.436	-149.501	1.06546	0
    Cd(f):	209.818	209.17	0.648494	0
    Cd(r):	-358.254	-358.671	0.416965	0
    Cl:	-568.072	-567.84	-0.231529	0
    Cl(f):	-139.609	-139.534	-0.0752794	0
    Cl(r):	-428.463	-428.306	-0.15625	0
    CmPitch:	144.427	144.386	0.0404851	0
    CmRoll:	284.036	283.92	0.115765	0
    CmYaw:	-74.2178	-74.7505	0.53273	0
    Cs:	2.11979e-18	2.15352e-18	-3.37314e-20	0
    Cs(f):	-74.2178	-74.7505	0.53273	0
    Cs(r):	74.2178	74.7505	-0.53273	0

    writing force and moment coefficient files.

Time = 98

smoothSolver:  Solving for Ux, Initial residual = 0.00310527, Final residual = 0.000245762, No Iterations 2
GAMG:  Solving for p, Initial residual = 0.0017949, Final residual = 7.88619e-05, No Iterations 17
smoothSolver:  Solving for Uy, Initial residual = 0.00393929, Final residual = 0.000288195, No Iterations 2
GAMG:  Solving for p, Initial residual = 0.0457729, Final residual = 0.00164266, No Iterations 5
GAMG:  Solving for p, Initial residual = 0.000114947, Final residual = 4.75226e-06, No Iterations 18
GAMG:  Solving for p, Initial residual = 0.0017949, Final residual = 7.88619e-05, No Iterations 17
GAMG:  Solving for p, Initial residual = 1.56145e-05, Final residual = 5.53537e-07, No Iterations 23
time step continuity errors : sum local = 5.77179e-05, global = -3.58522e-06, cumulative = 0.000230094
GAMG:  Solving for p, Initial residual = 0.000114947, Final residual = 4.75226e-06, No Iterations 18
smoothSolver:  Solving for omega, Initial residual = 0.00441062, Final residual = 0.000320688, No Iterations 2
smoothSolver:  Solving for k, Initial residual = 0.00245211, Final residual = 0.000139962, No Iterations 2
bounding k, min: -0.62406 max: 6283.44 average: 15.5759
ExecutionTime = 141.11 s  ClockTime = 141 s

forceCoeffs forceCoeffs1 write:
    Coefficient	Total	Pressure	Viscous	Internal
    Cd:	-149.329	-150.39	1.06168	0
    Cd(f):	210.602	209.954	0.648121	0
    Cd(r):	-359.93	-360.344	0.413557	0
    Cl:	-570.532	-570.297	-0.234563	0
    Cl(f):	-139.743	-139.667	-0.0764232	0
    Cl(r):	-430.789	-430.631	-0.15814	0
    CmPitch:	145.523	145.482	0.0408586	0
    CmRoll:	285.266	285.149	0.117282	0
    CmYaw:	-74.6643	-75.1952	0.530839	0
    Cs:	2.11931e-18	2.15446e-18	-3.51579e-20	0
    Cs(f):	-74.6643	-75.1952	0.530839	0
    Cs(r):	74.6643	75.1952	-0.530839	0

    writing force and moment coefficient files.

Time = 99

smoothSolver:  Solving for Ux, Initial residual = 0.00310722, Final residual = 0.000245847, No Iterations 2
smoothSolver:  Solving for Uy, Initial residual = 0.00392692, Final residual = 0.000286921, No Iterations 2
GAMG:  Solving for p, Initial residual = 1.56145e-05, Final residual = 5.53537e-07, No Iterations 23
time step continuity errors : sum local = 5.77179e-05, global = -3.58522e-06, cumulative = 0.000230094
GAMG:  Solving for p, Initial residual = 0.0461347, Final residual = 0.00160645, No Iterations 5
smoothSolver:  Solving for omega, Initial residual = 0.00441062, Final residual = 0.000320688, No Iterations 2
smoothSolver:  Solving for k, Initial residual = 0.00245211, Final residual = 0.000139962, No Iterations 2
bounding k, min: -0.62406 max: 6283.44 average: 15.5759
ExecutionTime = 140.86 s  ClockTime = 141 s

forceCoeffs forceCoeffs1 write:
    Coefficient	Total	Pressure	Viscous	Internal
    Cd:	-149.329	-150.39	1.06168	0
    Cd(f):	210.602	209.954	0.648121	0
    Cd(r):	-359.93	-360.344	0.413557	0
    Cl:	-570.532	-570.297	-0.234563	0
    Cl(f):	-139.743	-139.667	-0.0764232	0
    Cl(r):	-430.789	-430.631	-0.15814	0
    CmPitch:	145.523	145.482	0.0408586	0
    CmRoll:	285.266	285.149	0.117282	0
    CmYaw:	-74.6643	-75.1952	0.530839	0
    Cs:	2.11931e-18	2.15446e-18	-3.51579e-20	0
    Cs(f):	-74.6643	-75.1952	0.530839	0
    Cs(r):	74.6643	75.1952	-0.530839	0

    writing force and moment coefficient files.

Time = 99

smoothSolver:  Solving for Ux, Initial residual = 0.00310722, Final residual = 0.000245847, No Iterations 2
smoothSolver:  Solving for Uy, Initial residual = 0.00392692, Final residual = 0.000286921, No Iterations 2
GAMG:  Solving for p, Initial residual = 0.00176338, Final residual = 7.56616e-05, No Iterations 17
GAMG:  Solving for p, Initial residual = 0.0461347, Final residual = 0.00160645, No Iterations 5
GAMG:  Solving for p, Initial residual = 0.000113727, Final residual = 5.25732e-06, No Iterations 18
GAMG:  Solving for p, Initial residual = 0.00176338, Final residual = 7.56616e-05, No Iterations 17
GAMG:  Solving for p, Initial residual = 0.000113727, Final residual = 5.25732e-06, No Iterations 18
GAMG:  Solving for p, Initial residual = 1.68454e-05, Final residual = 6.64799e-07, No Iterations 26
time step continuity errors : sum local = 6.92248e-05, global = -3.90421e-07, cumulative = 0.000229703
smoothSolver:  Solving for omega, Initial residual = 0.00439638, Final residual = 0.000318902, No Iterations 2
smoothSolver:  Solving for k, Initial residual = 0.00248733, Final residual = 0.000142506, No Iterations 2
bounding k, min: -0.0882112 max: 6536.43 average: 15.7671
ExecutionTime = 142.4 s  ClockTime = 142 s

forceCoeffs forceCoeffs1 write:
    Coefficient	Total	Pressure	Viscous	Internal
    Cd:	-150.356	-151.414	1.05784	0
    Cd(f):	210.518	209.87	0.647756	0
    Cd(r):	-360.874	-361.284	0.410088	0
    Cl:	-571.392	-571.154	-0.237668	0
    Cl(f):	-139.865	-139.787	-0.0775962	0
    Cl(r):	-431.527	-431.367	-0.160072	0
    CmPitch:	145.831	145.79	0.041238	0
    CmRoll:	285.696	285.577	0.118834	0
    CmYaw:	-75.1781	-75.7071	0.528922	0
    Cs:	2.12274e-18	2.15634e-18	-3.35941e-20	0
    Cs(f):	-75.1781	-75.7071	0.528922	0
    Cs(r):	75.1781	75.7071	-0.528922	0

    writing force and moment coefficient files.

Time = 100

smoothSolver:  Solving for Ux, Initial residual = 0.00310856, Final residual = 0.000246191, No Iterations 2
smoothSolver:  Solving for Uy, Initial residual = 0.00391694, Final residual = 0.000285943, No Iterations 2
GAMG:  Solving for p, Initial residual = 1.68454e-05, Final residual = 6.64799e-07, No Iterations 26
time step continuity errors : sum local = 6.92248e-05, global = -3.90421e-07, cumulative = 0.000229703
GAMG:  Solving for p, Initial residual = 0.0465522, Final residual = 0.00154092, No Iterations 5
smoothSolver:  Solving for omega, Initial residual = 0.00439638, Final residual = 0.000318902, No Iterations 2
smoothSolver:  Solving for k, Initial residual = 0.00248733, Final residual = 0.000142506, No Iterations 2
bounding k, min: -0.0882112 max: 6536.43 average: 15.7671
ExecutionTime = 142.13 s  ClockTime = 142 s

forceCoeffs forceCoeffs1 write:
    Coefficient	Total	Pressure	Viscous	Internal
    Cd:	-150.356	-151.414	1.05784	0
    Cd(f):	210.518	209.87	0.647756	0
    Cd(r):	-360.874	-361.284	0.410088	0
    Cl:	-571.392	-571.154	-0.237668	0
    Cl(f):	-139.865	-139.787	-0.0775962	0
    Cl(r):	-431.527	-431.367	-0.160072	0
    CmPitch:	145.831	145.79	0.041238	0
    CmRoll:	285.696	285.577	0.118834	0
    CmYaw:	-75.1781	-75.7071	0.528922	0
    Cs:	2.12274e-18	2.15634e-18	-3.35941e-20	0
    Cs(f):	-75.1781	-75.7071	0.528922	0
    Cs(r):	75.1781	75.7071	-0.528922	0

    writing force and moment coefficient files.

Time = 100

smoothSolver:  Solving for Ux, Initial residual = 0.00310856, Final residual = 0.000246191, No Iterations 2
smoothSolver:  Solving for Uy, Initial residual = 0.00391694, Final residual = 0.000285943, No Iterations 2
GAMG:  Solving for p, Initial residual = 0.00169317, Final residual = 7.22862e-05, No Iterations 17
GAMG:  Solving for p, Initial residual = 0.0465522, Final residual = 0.00154092, No Iterations 5
GAMG:  Solving for p, Initial residual = 0.000107941, Final residual = 4.32485e-06, No Iterations 20
GAMG:  Solving for p, Initial residual = 0.00169317, Final residual = 7.22862e-05, No Iterations 17
GAMG:  Solving for p, Initial residual = 0.000107941, Final residual = 4.32485e-06, No Iterations 20
GAMG:  Solving for p, Initial residual = 1.65624e-05, Final residual = 7.19567e-07, No Iterations 25
time step continuity errors : sum local = 7.50609e-05, global = 2.64381e-06, cumulative = 0.000232347
smoothSolver:  Solving for omega, Initial residual = 0.00438722, Final residual = 0.000318244, No Iterations 2
smoothSolver:  Solving for k, Initial residual = 0.00253524, Final residual = 0.00014504, No Iterations 2
bounding k, min: -0.437361 max: 6777.79 average: 15.9616
GAMG:  Solving for p, Initial residual = 1.65624e-05, Final residual = 7.19567e-07, No Iterations 25
time step continuity errors : sum local = 7.50609e-05, global = 2.64381e-06, cumulative = 0.000232347
smoothSolver:  Solving for omega, Initial residual = 0.00438722, Final residual = 0.000318244, No Iterations 2
smoothSolver:  Solving for k, Initial residual = 0.00253524, Final residual = 0.00014504, No Iterations 2
bounding k, min: -0.437361 max: 6777.79 average: 15.9616
ExecutionTime = 144.58 s  ClockTime = 144 s

forceCoeffs forceCoeffs1 write:
    Coefficient	Total	Pressure	Viscous	Internal
    Cd:	-151.5	-152.554	1.05397	0
    Cd(f):	209.575	208.927	0.647423	0
    Cd(r):	-361.075	-361.482	0.406543	0
    Cl:	-570.65	-570.409	-0.24088	0
    Cl(f):	-139.933	-139.854	-0.0788205	0
    Cl(r):	-430.717	-430.555	-0.162059	0
    CmPitch:	145.392	145.35	0.0416194	0
    CmRoll:	285.325	285.204	0.12044	0
    CmYaw:	-75.7501	-76.2771	0.526983	0
    Cs:	2.12575e-18	2.1601e-18	-3.43538e-20	0
    Cs(f):	-75.7501	-76.2771	0.526983	0
    Cs(r):	75.7501	76.2771	-0.526983	0

    writing force and moment coefficient files.

End

ExecutionTime = 144.35 s  ClockTime = 145 s

forceCoeffs forceCoeffs1 write:
    Coefficient	Total	Pressure	Viscous	Internal
    Cd:	-151.5	-152.554	1.05397	0
    Cd(f):	209.575	208.927	0.647423	0
    Cd(r):	-361.075	-361.482	0.406543	0
    Cl:	-570.65	-570.409	-0.24088	0
    Cl(f):	-139.933	-139.854	-0.0788205	0
    Cl(r):	-430.717	-430.555	-0.162059	0
    CmPitch:	145.392	145.35	0.0416194	0
    CmRoll:	285.325	285.204	0.12044	0
    CmYaw:	-75.7501	-76.2771	0.526983	0
    Cs:	2.12575e-18	2.1601e-18	-3.43538e-20	0
    Cs(f):	-75.7501	-76.2771	0.526983	0
    Cs(r):	75.7501	76.2771	-0.526983	0

    writing force and moment coefficient files.

End

