/*---------------------------------------------------------------------------*\
| =========                 |                                                 |
| \\      /  F ield         | OpenFOAM: The Open Source CFD Toolbox           |
|  \\    /   O peration     | Version:  2212                                  |
|   \\  /    A nd           | Website:  www.openfoam.com                      |
|    \\/     M anipulation  |                                                 |
\*---------------------------------------------------------------------------*/
Build  : _70874860-20230612 OPENFOAM=2212 patch=230612 version=2212
Arch   : "LSB;label=32;scalar=64"
Exec   : blockMesh
Date   : Nov 27 2023
Time   : 11:23:34
Host   : maciek-gv62-7rc
PID    : 82679
I/O    : uncollated
Case   : /home/maciek/repository/airSupport/run/NACA0015_AoA[0-3]_k-omega
nProcs : 1
trapFpe: Floating point exception trapping enabled (FOAM_SIGFPE).
fileModificationChecking : Monitoring run-time modified files using timeStampMaster (fileModificationSkew 5, maxFileModificationPolls 20)
allowSystemOperations : Allowing user-supplied system call operations

// * * * * * * * * * * * * * * * * * * * * * * * * * * * * * * * * * * * * * //
Create time

Creating block mesh from "system/blockMeshDict"
Creating block edges
Creating block faces
Creating topology blocks

Creating topology patches - from boundary section

Creating block mesh topology
--> FOAM Warning : 
    From Foam::polyMesh::polyMesh(const Foam::IOobject&, Foam::pointField&&, const cellShapeList&, const faceListList&, const wordList&, const Foam::PtrList<Foam::dictionary>&, const Foam::word&, const Foam::word&, bool)
    in file meshes/polyMesh/polyMeshFromShapeMesh.C at line 919
    Found 10 undefined faces in mesh; adding to default patch frontAndBack

Check topology

	Basic statistics
		Number of internal faces : 5
		Number of boundary faces : 20
		Number of defined boundary faces : 20
		Number of undefined boundary faces : 0
	Checking patch -> block consistency

Creating block offsets
Creating merge list (topological search)...

Creating polyMesh from blockMesh
Creating patches
Creating cells
Creating points with scale (1 1 1)
    Block 0 cell size :
        i : 0.00342721 .. 0.00337267
        j : 0.000674596 .. 0.674596
        k : 1 .. 1

    Block 1 cell size :
        i : 0.00541016 .. 0.0811525
        j : 0.000674489 .. 0.674489
        k : 1 .. 1

    Block 2 cell size :
        i : 0.00541016 .. 0.0811525
        j : 0.000315 .. 0.000315
        k : 1 .. 1

    Block 3 cell size :
        i : 0.00541016 .. 0.0811525
        j : 0.674489 .. 0.000674489
        k : 1 .. 1

    Block 4 cell size :
        i : 0.0553729 .. 0.0553729
        j : 0.674596 .. 0.000674596
        k : 1 .. 1

No patch pairs to merge

Writing polyMesh with 0 cellZones
----------------
Mesh Information
----------------
  boundingBox: (-10 -10.0247 0) (15 10.0247 1)
  nPoints: 332420
  nCells: 165000
  nFaces: 661210
  nInternalFaces: 328790
----------------
Patches
----------------
  patch 0 (start: 328790 size: 1600) name: inlet
  patch 1 (start: 330390 size: 210) name: outlet
  patch 2 (start: 330600 size: 610) name: foil
  patch 3 (start: 331210 size: 330000) name: frontAndBack

End

