/*---------------------------------------------------------------------------*\
| =========                 |                                                 |
| \\      /  F ield         | OpenFOAM: The Open Source CFD Toolbox           |
|  \\    /   O peration     | Version:  2212                                  |
|   \\  /    A nd           | Website:  www.openfoam.com                      |
|    \\/     M anipulation  |                                                 |
\*---------------------------------------------------------------------------*/
Build  : _70874860-20230612 OPENFOAM=2212 patch=230612 version=2212
Arch   : "LSB;label=32;scalar=64"
Exec   : simpleFoam
Date   : Sep 20 2023
Time   : 12:51:46
Host   : maciek-gv62-7rc
PID    : 731427
/*---------------------------------------------------------------------------*\
| =========                 |                                                 |
| \\      /  F ield         | OpenFOAM: The Open Source CFD Toolbox           |
|  \\    /   O peration     | Version:  2212                                  |
|   \\  /    A nd           | Website:  www.openfoam.com                      |
|    \\/     M anipulation  |                                                 |
\*---------------------------------------------------------------------------*/
Build  : _70874860-20230612 OPENFOAM=2212 patch=230612 version=2212
Arch   : "LSB;label=32;scalar=64"
Exec   : simpleFoam
Date   : Sep 20 2023
Time   : 12:51:46
Host   : maciek-gv62-7rc
PID    : 731429
/*---------------------------------------------------------------------------*\
| =========                 |                                                 |
| \\      /  F ield         | OpenFOAM: The Open Source CFD Toolbox           |
|  \\    /   O peration     | Version:  2212                                  |
|   \\  /    A nd           | Website:  www.openfoam.com                      |
|    \\/     M anipulation  |                                                 |
\*---------------------------------------------------------------------------*/
Build  : _70874860-20230612 OPENFOAM=2212 patch=230612 version=2212
Arch   : "LSB;label=32;scalar=64"
Exec   : simpleFoam
Date   : Sep 20 2023
Time   : 12:51:46
Host   : maciek-gv62-7rc
PID    : 731430
/*---------------------------------------------------------------------------*\
| =========                 |                                                 |
| \\      /  F ield         | OpenFOAM: The Open Source CFD Toolbox           |
|  \\    /   O peration     | Version:  2212                                  |
|   \\  /    A nd           | Website:  www.openfoam.com                      |
|    \\/     M anipulation  |                                                 |
\*---------------------------------------------------------------------------*/
Build  : _70874860-20230612 OPENFOAM=2212 patch=230612 version=2212
Arch   : "LSB;label=32;scalar=64"
Exec   : simpleFoam
Date   : Sep 20 2023
Time   : 12:51:46
Host   : maciek-gv62-7rc
PID    : 731428
I/O    : uncollated
Case   : /home/maciek/repository/airSupport/run/NACA0017_AoA[0-3]_k-omega
nProcs : 1
I/O    : uncollated
trapFpe: Floating point exception trapping enabled (FOAM_SIGFPE).
fileModificationChecking : Monitoring run-time modified files using timeStampMaster (fileModificationSkew 5, maxFileModificationPolls 20)
allowSystemOperations : Allowing user-supplied system call operations

// * * * * * * * * * * * * * * * * * * * * * * * * * * * * * * * * * * * * * //
Create time

Case   : /home/maciek/repository/airSupport/run/NACA0017_AoA[0-3]_k-omega
nProcs : 1
trapFpe: Floating point exception trapping enabled (FOAM_SIGFPE).
I/O    : uncollated
fileModificationChecking : Monitoring run-time modified files using timeStampMaster (fileModificationSkew 5, maxFileModificationPolls 20)
allowSystemOperations : Allowing user-supplied system call operations

// * * * * * * * * * * * * * * * * * * * * * * * * * * * * * * * * * * * * * //
Case   : /home/maciek/repository/airSupport/run/NACA0017_AoA[0-3]_k-omega
nProcs : 1
I/O    : uncollated
Create time

trapFpe: Floating point exception trapping enabled (FOAM_SIGFPE).
Case   : /home/maciek/repository/airSupport/run/NACA0017_AoA[0-3]_k-omega
nProcs : 1
fileModificationChecking : Monitoring run-time modified files using timeStampMaster (fileModificationSkew 5, maxFileModificationPolls 20)
allowSystemOperations : Allowing user-supplied system call operations

// * * * * * * * * * * * * * * * * * * * * * * * * * * * * * * * * * * * * * //
Create time

trapFpe: Floating point exception trapping enabled (FOAM_SIGFPE).
fileModificationChecking : Monitoring run-time modified files using timeStampMaster (fileModificationSkew 5, maxFileModificationPolls 20)
allowSystemOperations : Allowing user-supplied system call operations

// * * * * * * * * * * * * * * * * * * * * * * * * * * * * * * * * * * * * * //
Create time

Create mesh for time = 0
Create mesh for time = 0
Create mesh for time = 0
Create mesh for time = 0


SIMPLE: convergence criteria
    field U	 tolerance 0.0001
    field p	 tolerance 0.001
    field "(k|epsilon|omega)"	 tolerance 0.001

Reading field p

Reading field U

Reading/calculating face flux field phi



SIMPLE: convergence criteria
    field U	 tolerance 0.0001
    field p	 tolerance 0.001
    field "(k|epsilon|omega)"	 tolerance 0.001

Reading field p

Reading field U

Selecting incompressible transport model Newtonian
Selecting turbulence model type RAS
Selecting RAS turbulence model kOmega
Reading/calculating face flux field phi

bounding k, min: 0 max: 0 average: 0
Selecting incompressible transport model Newtonian
Selecting turbulence model type RAS
Selecting RAS turbulence model kOmega
RAS
{
    RASModel        kOmega;
    turbulence      on;
    printCoeffs     on;
    betaStar        0.09;
    beta            0.072;
    gamma           0.52;
    alphaK          0.5;
    alphaOmega      0.5;
}

No MRF models present

No finite volume options present
bounding k, min: 0 max: 0 average: 0

Starting time loop

forceCoeffs forceCoeffs1:
    rho: rhoInf
    Freestream density (rhoInf) set to 1
    Not including porosity effects
    magUInf: 10
    lRef   : 1
    Aref   : 1
    rhoInf : 1
    Selecting all coefficients
    - Drag force: Cd
    - Drag force front: Cd(f)
    - Drag force rear: Cd(r)
    - Lift force: Cl
    - Lift force front: Cl(f)
    - Lift force rear: Cl(r)
    - Pitch moment: CmPitch
    - Roll moment: CmRoll
    - Yaw moment: CmYaw
    - Side force: Cs
    - Side force front: Cs(f)
    - Side force rear: Cs(r)


Time = 1



SIMPLE: convergence criteria
    field U	 tolerance 0.0001
    field p	 tolerance 0.001
    field "(k|epsilon|omega)"	 tolerance 0.001

Reading field p

Reading field U

RAS
{
    RASModel        kOmega;
    turbulence      on;
    printCoeffs     on;
    betaStar        0.09;
    beta            0.072;
    gamma           0.52;
    alphaK          0.5;
    alphaOmega      0.5;
}

No MRF models present

No finite volume options present

Starting time loop

forceCoeffs forceCoeffs1:
    rho: rhoInf
    Freestream density (rhoInf) set to 1
    Not including porosity effects
    magUInf: 10
    lRef   : 1
    Aref   : 1
    rhoInf : 1
    Selecting all coefficients
    - Drag force: Cd
    - Drag force front: Cd(f)
    - Drag force rear: Cd(r)
    - Lift force: Cl
    - Lift force front: Cl(f)
    - Lift force rear: Cl(r)
    - Pitch moment: CmPitch
    - Roll moment: CmRoll
    - Yaw moment: CmYaw
    - Side force: Cs
    - Side force front: Cs(f)
    - Side force rear: Cs(r)


Time = 1

Reading/calculating face flux field phi

Selecting incompressible transport model Newtonian
Selecting turbulence model type RAS
Selecting RAS turbulence model kOmega
bounding k, min: 0 max: 0 average: 0
RAS
{
    RASModel        kOmega;
    turbulence      on;
    printCoeffs     on;
    betaStar        0.09;
    beta            0.072;
    gamma           0.52;
    alphaK          0.5;
    alphaOmega      0.5;
}

No MRF models present

No finite volume options present

Starting time loop

forceCoeffs forceCoeffs1:
    rho: rhoInf
    Freestream density (rhoInf) set to 1
    Not including porosity effects
    magUInf: 10
    lRef   : 1
    Aref   : 1
    rhoInf : 1
    Selecting all coefficients
    - Drag force: Cd
    - Drag force front: Cd(f)
    - Drag force rear: Cd(r)
    - Lift force: Cl
    - Lift force front: Cl(f)
    - Lift force rear: Cl(r)
    - Pitch moment: CmPitch
    - Roll moment: CmRoll
    - Yaw moment: CmYaw
    - Side force: Cs
    - Side force front: Cs(f)
    - Side force rear: Cs(r)


Time = 1



SIMPLE: convergence criteria
    field U	 tolerance 0.0001
    field p	 tolerance 0.001
    field "(k|epsilon|omega)"	 tolerance 0.001

Reading field p

Reading field U

Reading/calculating face flux field phi

Selecting incompressible transport model Newtonian
Selecting turbulence model type RAS
Selecting RAS turbulence model kOmega
bounding k, min: 0 max: 0 average: 0
RAS
{
    RASModel        kOmega;
    turbulence      on;
    printCoeffs     on;
    betaStar        0.09;
    beta            0.072;
    gamma           0.52;
    alphaK          0.5;
    alphaOmega      0.5;
}

No MRF models present

No finite volume options present

Starting time loop

forceCoeffs forceCoeffs1:
    rho: rhoInf
    Freestream density (rhoInf) set to 1
    Not including porosity effects
    magUInf: 10
    lRef   : 1
    Aref   : 1
    rhoInf : 1
    Selecting all coefficients
    - Drag force: Cd
    - Drag force front: Cd(f)
    - Drag force rear: Cd(r)
    - Lift force: Cl
    - Lift force front: Cl(f)
    - Lift force rear: Cl(r)
    - Pitch moment: CmPitch
    - Roll moment: CmRoll
    - Yaw moment: CmYaw
    - Side force: Cs
    - Side force front: Cs(f)
    - Side force rear: Cs(r)


Time = 1

smoothSolver:  Solving for Ux, Initial residual = 1, Final residual = 0.0974607, No Iterations 2
smoothSolver:  Solving for Ux, Initial residual = 1, Final residual = 0.0974607, No Iterations 2
smoothSolver:  Solving for Uy, Initial residual = 1, Final residual = 0.0768292, No Iterations 2
smoothSolver:  Solving for Uy, Initial residual = 1, Final residual = 0.0768292, No Iterations 2
smoothSolver:  Solving for Ux, Initial residual = 1, Final residual = 0.0974607, No Iterations 2
smoothSolver:  Solving for Uy, Initial residual = 1, Final residual = 0.0768292, No Iterations 2
smoothSolver:  Solving for Ux, Initial residual = 1, Final residual = 0.0974607, No Iterations 2
smoothSolver:  Solving for Uy, Initial residual = 1, Final residual = 0.0768292, No Iterations 2
GAMG:  Solving for p, Initial residual = 1, Final residual = 0.03998, No Iterations 18
GAMG:  Solving for p, Initial residual = 1, Final residual = 0.03998, No Iterations 18
GAMG:  Solving for p, Initial residual = 1, Final residual = 0.03998, No Iterations 18
GAMG:  Solving for p, Initial residual = 0.090615, Final residual = 0.00437455, No Iterations 5
GAMG:  Solving for p, Initial residual = 1, Final residual = 0.03998, No Iterations 18
GAMG:  Solving for p, Initial residual = 0.090615, Final residual = 0.00437455, No Iterations 5
GAMG:  Solving for p, Initial residual = 0.090615, Final residual = 0.00437455, No Iterations 5
GAMG:  Solving for p, Initial residual = 0.090615, Final residual = 0.00437455, No Iterations 5
GAMG:  Solving for p, Initial residual = 0.0113766, Final residual = 0.000474403, No Iterations 12
GAMG:  Solving for p, Initial residual = 0.0113766, Final residual = 0.000474403, No Iterations 12
GAMG:  Solving for p, Initial residual = 0.0113766, Final residual = 0.000474403, No Iterations 12
GAMG:  Solving for p, Initial residual = 0.0113766, Final residual = 0.000474403, No Iterations 12
GAMG:  Solving for p, Initial residual = 0.00154237, Final residual = 6.71165e-05, No Iterations 12
time step continuity errors : sum local = 1.70532e-06, global = -1.33899e-08, cumulative = -1.33899e-08
GAMG:  Solving for p, Initial residual = 0.00154237, Final residual = 6.71165e-05, No Iterations 12
time step continuity errors : sum local = 1.70532e-06, global = -1.33899e-08, cumulative = -1.33899e-08
GAMG:  Solving for p, Initial residual = 0.00154237, Final residual = 6.71165e-05, No Iterations 12
time step continuity errors : sum local = 1.70532e-06, global = -1.33899e-08, cumulative = -1.33899e-08
smoothSolver:  Solving for omega, Initial residual = 0.000182541, Final residual = 1.08444e-05, No Iterations 2
bounding omega, min: -10419.3 max: 1.37977e+06 average: 2253.6
smoothSolver:  Solving for omega, Initial residual = 0.000182541, Final residual = 1.08444e-05, No Iterations 2
GAMG:  Solving for p, Initial residual = 0.00154237, Final residual = 6.71165e-05, No Iterations 12
bounding omega, min: -10419.3 max: 1.37977e+06 average: 2253.6
time step continuity errors : sum local = 1.70532e-06, global = -1.33899e-08, cumulative = -1.33899e-08
smoothSolver:  Solving for omega, Initial residual = 0.000182541, Final residual = 1.08444e-05, No Iterations 2
smoothSolver:  Solving for k, Initial residual = 1, Final residual = 0.0330526, No Iterations 2
bounding omega, min: -10419.3 max: 1.37977e+06 average: 2253.6
bounding k, min: -2.32854e-08 max: 3.38099e-06 average: 1.31779e-09
ExecutionTime = 10.85 s  ClockTime = 11 s

forceCoeffs forceCoeffs1 write:
    Coefficient	Total	Pressure	Viscous	Internal
    Cd:	9.28618	9.18217	0.104015	0
    Cd(f):	4.64307	4.59106	0.0520074	0
    Cd(r):	4.64311	4.59111	0.0520078	0
    Cl:	4.81851e-05	4.7816e-05	3.69177e-07	0
    Cl(f):	-5.34782e-05	-5.17541e-05	-1.72408e-06	0
    Cl(r):	0.000101663	9.957e-05	2.09326e-06	0
    CmPitch:	-7.75707e-05	-7.5662e-05	-1.90867e-06	0
    CmRoll:	-2.40926e-05	-2.3908e-05	-1.84588e-07	0
    CmYaw:	4.64309	4.59108	0.0520076	0
    Cs:	2.61183e-21	3.67722e-21	-1.06539e-21	0
    Cs(f):	4.64309	4.59108	0.0520076	0
    Cs(r):	-4.64309	-4.59108	-0.0520076	0

    writing force and moment coefficient files.

Time = 2

smoothSolver:  Solving for k, Initial residual = 1, Final residual = 0.0330526, No Iterations 2
bounding k, min: -2.32854e-08 max: 3.38099e-06 average: 1.31779e-09
ExecutionTime = 11.09 s  ClockTime = 11 s

smoothSolver:  Solving for k, Initial residual = 1, Final residual = 0.0330526, No Iterations 2
bounding k, min: -2.32854e-08 max: 3.38099e-06 average: 1.31779e-09
ExecutionTime = 11.22 s  ClockTime = 11 s

forceCoeffs forceCoeffs1 write:
    Coefficient	Total	Pressure	Viscous	Internal
    Cd:	9.28618	9.18217	0.104015	0
    Cd(f):	4.64307	4.59106	0.0520074	0
    Cd(r):	4.64311	4.59111	0.0520078	0
    Cl:	4.81851e-05	4.7816e-05	3.69177e-07	0
    Cl(f):	-5.34782e-05	-5.17541e-05	-1.72408e-06	0
    Cl(r):	0.000101663	9.957e-05	2.09326e-06	0
    CmPitch:	-7.75707e-05	-7.5662e-05	-1.90867e-06	0
    CmRoll:	-2.40926e-05	-2.3908e-05	-1.84588e-07	0
    CmYaw:	4.64309	4.59108	0.0520076	0
    Cs:	2.61183e-21	3.67722e-21	-1.06539e-21	0
    Cs(f):	4.64309	4.59108	0.0520076	0
    Cs(r):	-4.64309	-4.59108	-0.0520076	0

    writing force and moment coefficient files.

Time = 2

smoothSolver:  Solving for omega, Initial residual = 0.000182541, Final residual = 1.08444e-05, No Iterations 2
bounding omega, min: -10419.3 max: 1.37977e+06 average: 2253.6
forceCoeffs forceCoeffs1 write:
    Coefficient	Total	Pressure	Viscous	Internal
    Cd:	9.28618	9.18217	0.104015	0
    Cd(f):	4.64307	4.59106	0.0520074	0
    Cd(r):	4.64311	4.59111	0.0520078	0
    Cl:	4.81851e-05	4.7816e-05	3.69177e-07	0
    Cl(f):	-5.34782e-05	-5.17541e-05	-1.72408e-06	0
    Cl(r):	0.000101663	9.957e-05	2.09326e-06	0
    CmPitch:	-7.75707e-05	-7.5662e-05	-1.90867e-06	0
    CmRoll:	-2.40926e-05	-2.3908e-05	-1.84588e-07	0
    CmYaw:	4.64309	4.59108	0.0520076	0
    Cs:	2.61183e-21	3.67722e-21	-1.06539e-21	0
    Cs(f):	4.64309	4.59108	0.0520076	0
    Cs(r):	-4.64309	-4.59108	-0.0520076	0

    writing force and moment coefficient files.

Time = 2

smoothSolver:  Solving for k, Initial residual = 1, Final residual = 0.0330526, No Iterations 2
bounding k, min: -2.32854e-08 max: 3.38099e-06 average: 1.31779e-09
ExecutionTime = 11.64 s  ClockTime = 12 s

forceCoeffs forceCoeffs1 write:
    Coefficient	Total	Pressure	Viscous	Internal
    Cd:	9.28618	9.18217	0.104015	0
    Cd(f):	4.64307	4.59106	0.0520074	0
    Cd(r):	4.64311	4.59111	0.0520078	0
    Cl:	4.81851e-05	4.7816e-05	3.69177e-07	0
    Cl(f):	-5.34782e-05	-5.17541e-05	-1.72408e-06	0
    Cl(r):	0.000101663	9.957e-05	2.09326e-06	0
    CmPitch:	-7.75707e-05	-7.5662e-05	-1.90867e-06	0
    CmRoll:	-2.40926e-05	-2.3908e-05	-1.84588e-07	0
    CmYaw:	4.64309	4.59108	0.0520076	0
    Cs:	2.61183e-21	3.67722e-21	-1.06539e-21	0
    Cs(f):	4.64309	4.59108	0.0520076	0
    Cs(r):	-4.64309	-4.59108	-0.0520076	0

    writing force and moment coefficient files.

Time = 2

smoothSolver:  Solving for Ux, Initial residual = 0.068934, Final residual = 0.00368086, No Iterations 2
smoothSolver:  Solving for Ux, Initial residual = 0.068934, Final residual = 0.00368086, No Iterations 2
smoothSolver:  Solving for Uy, Initial residual = 0.327654, Final residual = 0.0168911, No Iterations 2
smoothSolver:  Solving for Uy, Initial residual = 0.327654, Final residual = 0.0168911, No Iterations 2
smoothSolver:  Solving for Ux, Initial residual = 0.068934, Final residual = 0.00368086, No Iterations 2
smoothSolver:  Solving for Uy, Initial residual = 0.327654, Final residual = 0.0168911, No Iterations 2
smoothSolver:  Solving for Ux, Initial residual = 0.068934, Final residual = 0.00368086, No Iterations 2
smoothSolver:  Solving for Uy, Initial residual = 0.327654, Final residual = 0.0168911, No Iterations 2
GAMG:  Solving for p, Initial residual = 0.741952, Final residual = 0.0302139, No Iterations 7
GAMG:  Solving for p, Initial residual = 0.741952, Final residual = 0.0302139, No Iterations 7
GAMG:  Solving for p, Initial residual = 0.741952, Final residual = 0.0302139, No Iterations 7
GAMG:  Solving for p, Initial residual = 0.741952, Final residual = 0.0302139, No Iterations 7
GAMG:  Solving for p, Initial residual = 0.0246862, Final residual = 0.00113284, No Iterations 10
GAMG:  Solving for p, Initial residual = 0.0246862, Final residual = 0.00113284, No Iterations 10
GAMG:  Solving for p, Initial residual = 0.0246862, Final residual = 0.00113284, No Iterations 10
GAMG:  Solving for p, Initial residual = 0.0246862, Final residual = 0.00113284, No Iterations 10
GAMG:  Solving for p, Initial residual = 0.00312168, Final residual = 0.000146488, No Iterations 11
GAMG:  Solving for p, Initial residual = 0.00312168, Final residual = 0.000146488, No Iterations 11
GAMG:  Solving for p, Initial residual = 0.00312168, Final residual = 0.000146488, No Iterations 11
GAMG:  Solving for p, Initial residual = 0.00312168, Final residual = 0.000146488, No Iterations 11
GAMG:  Solving for p, Initial residual = 0.000357549, Final residual = 1.76268e-05, No Iterations 18
time step continuity errors : sum local = 1.48456e-06, global = -1.05572e-08, cumulative = -2.3947e-08
GAMG:  Solving for p, Initial residual = 0.000357549, Final residual = 1.76268e-05, No Iterations 18
time step continuity errors : sum local = 1.48456e-06, global = -1.05572e-08, cumulative = -2.3947e-08
GAMG:  Solving for p, Initial residual = 0.000357549, Final residual = 1.76268e-05, No Iterations 18
time step continuity errors : sum local = 1.48456e-06, global = -1.05572e-08, cumulative = -2.3947e-08
smoothSolver:  Solving for omega, Initial residual = 0.000483214, Final residual = 2.151e-05, No Iterations 2
bounding omega, min: -16392.8 max: 1.06113e+07 average: 2813.84
smoothSolver:  Solving for omega, Initial residual = 0.000483214, Final residual = 2.151e-05, No Iterations 2
bounding omega, min: -16392.8 max: 1.06113e+07 average: 2813.84
smoothSolver:  Solving for omega, Initial residual = 0.000483214, Final residual = 2.151e-05, No Iterations 2
bounding omega, min: -16392.8 max: 1.06113e+07 average: 2813.84
GAMG:  Solving for p, Initial residual = 0.000357549, Final residual = 1.76268e-05, No Iterations 18
time step continuity errors : sum local = 1.48456e-06, global = -1.05572e-08, cumulative = -2.3947e-08
smoothSolver:  Solving for k, Initial residual = 0.704879, Final residual = 0.00222709, No Iterations 2
bounding k, min: -2.41966e-05 max: 0.00271523 average: 3.60322e-07
smoothSolver:  Solving for k, Initial residual = 0.704879, Final residual = 0.00222709, No Iterations 2
bounding k, min: -2.41966e-05 max: 0.00271523 average: 3.60322e-07
smoothSolver:  Solving for k, Initial residual = 0.704879, Final residual = 0.00222709, No Iterations 2
bounding k, min: -2.41966e-05 max: 0.00271523 average: 3.60322e-07
smoothSolver:  Solving for omega, Initial residual = 0.000483214, Final residual = 2.151e-05, No Iterations 2
bounding omega, min: -16392.8 max: 1.06113e+07 average: 2813.84
smoothSolver:  Solving for k, Initial residual = 0.704879, Final residual = 0.00222709, No Iterations 2
bounding k, min: -2.41966e-05 max: 0.00271523 average: 3.60322e-07
ExecutionTime = 21.07 s  ClockTime = 21 s

ExecutionTime = 21.02 s  ClockTime = 21 s

ExecutionTime = 21.06 s  ClockTime = 21 s

forceCoeffs forceCoeffs1 write:
    Coefficient	Total	Pressure	Viscous	Internal
    Cd:	12.1984	12.128	0.0704126	0
    Cd(f):	6.10111	6.06586	0.0352506	0
    Cd(r):	6.09726	6.0621	0.035162	0
    Cl:	-0.00384758	-0.00375903	-8.85539e-05	0
    Cl(f):	-0.00431201	-0.00420087	-0.000111142	0
    Cl(r):	0.00046443	0.000441842	2.25882e-05	0
    CmPitch:	-0.00238822	-0.00232136	-6.68652e-05	0
    CmRoll:	0.00192379	0.00187951	4.42769e-05	0
    CmYaw:	6.09918	6.06398	0.0352063	0
    Cs:	1.05552e-21	4.6292e-21	-3.57369e-21	0
    Cs(f):	6.09918	6.06398	0.0352063	0
    Cs(r):	-6.09918	-6.06398	-0.0352063	0

    writing force and moment coefficient files.

End

ExecutionTime = 21.29 s  ClockTime = 21 s

forceCoeffs forceCoeffs1 write:
    Coefficient	Total	Pressure	Viscous	Internal
    Cd:	12.1984	12.128	0.0704126	0
    Cd(f):	6.10111	6.06586	0.0352506	0
    Cd(r):	6.09726	6.0621	0.035162	0
    Cl:	-0.00384758	-0.00375903	-8.85539e-05	0
    Cl(f):	-0.00431201	-0.00420087	-0.000111142	0
    Cl(r):	0.00046443	0.000441842	2.25882e-05	0
    CmPitch:	-0.00238822	-0.00232136	-6.68652e-05	0
    CmRoll:	0.00192379	0.00187951	4.42769e-05	0
    CmYaw:	6.09918	6.06398	0.0352063	0
    Cs:	1.05552e-21	4.6292e-21	-3.57369e-21	0
    Cs(f):	6.09918	6.06398	0.0352063	0
    Cs(r):	-6.09918	-6.06398	-0.0352063	0

    writing force and moment coefficient files.
forceCoeffs forceCoeffs1 write:
    Coefficient	Total	Pressure	Viscous	Internal
    Cd:	12.1984	12.128	0.0704126	0
    Cd(f):	6.10111	6.06586	0.0352506	0
    Cd(r):	6.09726	6.0621	0.035162	0
    Cl:	-0.00384758	-0.00375903	-8.85539e-05	0
    Cl(f):	-0.00431201	-0.00420087	-0.000111142	0
    Cl(r):	0.00046443	0.000441842	2.25882e-05	0
    CmPitch:	-0.00238822	-0.00232136	-6.68652e-05	0
    CmRoll:	0.00192379	0.00187951	4.42769e-05	0
    CmYaw:	6.09918	6.06398	0.0352063	0
    Cs:	1.05552e-21	4.6292e-21	-3.57369e-21	0
    Cs(f):	6.09918	6.06398	0.0352063	0
    Cs(r):	-6.09918	-6.06398	-0.0352063	0

    writing force and moment coefficient files.

End


End

forceCoeffs forceCoeffs1 write:
    Coefficient	Total	Pressure	Viscous	Internal
    Cd:	12.1984	12.128	0.0704126	0
    Cd(f):	6.10111	6.06586	0.0352506	0
    Cd(r):	6.09726	6.0621	0.035162	0
    Cl:	-0.00384758	-0.00375903	-8.85539e-05	0
    Cl(f):	-0.00431201	-0.00420087	-0.000111142	0
    Cl(r):	0.00046443	0.000441842	2.25882e-05	0
    CmPitch:	-0.00238822	-0.00232136	-6.68652e-05	0
    CmRoll:	0.00192379	0.00187951	4.42769e-05	0
    CmYaw:	6.09918	6.06398	0.0352063	0
    Cs:	1.05552e-21	4.6292e-21	-3.57369e-21	0
    Cs(f):	6.09918	6.06398	0.0352063	0
    Cs(r):	-6.09918	-6.06398	-0.0352063	0

    writing force and moment coefficient files.

End

