/*---------------------------------------------------------------------------*\
| =========                 |                                                 |
| \\      /  F ield         | OpenFOAM: The Open Source CFD Toolbox           |
|  \\    /   O peration     | Version:  2212                                  |
|   \\  /    A nd           | Website:  www.openfoam.com                      |
|    \\/     M anipulation  |                                                 |
\*---------------------------------------------------------------------------*/
Build  : _70874860-20230612 OPENFOAM=2212 patch=230612 version=2212
Arch   : "LSB;label=32;scalar=64"
Exec   : simpleFoam
Date   : Sep 20 2023
Time   : 12:52:34
Host   : maciek-gv62-7rc
PID    : 732077
/*---------------------------------------------------------------------------*\
| =========                 |                                                 |
| \\      /  F ield         | OpenFOAM: The Open Source CFD Toolbox           |
|  \\    /   O peration     | Version:  2212                                  |
|   \\  /    A nd           | Website:  www.openfoam.com                      |
|    \\/     M anipulation  |                                                 |
\*---------------------------------------------------------------------------*/
Build  : _70874860-20230612 OPENFOAM=2212 patch=230612 version=2212
Arch   : "LSB;label=32;scalar=64"
Exec   : simpleFoam
Date   : Sep 20 2023
Time   : 12:52:34
Host   : maciek-gv62-7rc
PID    : 732078
/*---------------------------------------------------------------------------*\
| =========                 |                                                 |
| \\      /  F ield         | OpenFOAM: The Open Source CFD Toolbox           |
|  \\    /   O peration     | Version:  2212                                  |
|   \\  /    A nd           | Website:  www.openfoam.com                      |
|    \\/     M anipulation  |                                                 |
\*---------------------------------------------------------------------------*/
Build  : _70874860-20230612 OPENFOAM=2212 patch=230612 version=2212
Arch   : "LSB;label=32;scalar=64"
Exec   : simpleFoam
Date   : Sep 20 2023
Time   : 12:52:34
Host   : maciek-gv62-7rc
PID    : 732079
/*---------------------------------------------------------------------------*\
| =========                 |                                                 |
| \\      /  F ield         | OpenFOAM: The Open Source CFD Toolbox           |
|  \\    /   O peration     | Version:  2212                                  |
|   \\  /    A nd           | Website:  www.openfoam.com                      |
|    \\/     M anipulation  |                                                 |
\*---------------------------------------------------------------------------*/
Build  : _70874860-20230612 OPENFOAM=2212 patch=230612 version=2212
Arch   : "LSB;label=32;scalar=64"
Exec   : simpleFoam
Date   : Sep 20 2023
Time   : 12:52:34
Host   : maciek-gv62-7rc
PID    : 732080
I/O    : uncollated
I/O    : uncollated
I/O    : uncollated
I/O    : uncollated
Case   : /home/maciek/repository/airSupport/run/NACA0017_AoA[0-3]_k-omega
nProcs : 1
Case   : /home/maciek/repository/airSupport/run/NACA0017_AoA[0-3]_k-omega
nProcs : 1
Case   : /home/maciek/repository/airSupport/run/NACA0017_AoA[0-3]_k-omega
nProcs : 1
Case   : /home/maciek/repository/airSupport/run/NACA0017_AoA[0-3]_k-omega
nProcs : 1
trapFpe: Floating point exception trapping enabled (FOAM_SIGFPE).
trapFpe: Floating point exception trapping enabled (FOAM_SIGFPE).
fileModificationChecking : Monitoring run-time modified files using timeStampMaster (fileModificationSkew 5, maxFileModificationPolls 20)
trapFpe: Floating point exception trapping enabled (FOAM_SIGFPE).
trapFpe: Floating point exception trapping enabled (FOAM_SIGFPE).
fileModificationChecking : Monitoring run-time modified files using timeStampMaster (fileModificationSkew 5, maxFileModificationPolls 20)
fileModificationChecking : Monitoring run-time modified files using timeStampMaster (fileModificationSkew 5, maxFileModificationPolls 20)
allowSystemOperations : Allowing user-supplied system call operations

// * * * * * * * * * * * * * * * * * * * * * * * * * * * * * * * * * * * * * //
Create time

fileModificationChecking : Monitoring run-time modified files using timeStampMaster (fileModificationSkew 5, maxFileModificationPolls 20)
allowSystemOperations : Allowing user-supplied system call operations

// * * * * * * * * * * * * * * * * * * * * * * * * * * * * * * * * * * * * * //
Create time

allowSystemOperations : Allowing user-supplied system call operations

// * * * * * * * * * * * * * * * * * * * * * * * * * * * * * * * * * * * * * //
Create time

allowSystemOperations : Allowing user-supplied system call operations

// * * * * * * * * * * * * * * * * * * * * * * * * * * * * * * * * * * * * * //
Create time

Create mesh for time = 0
Create mesh for time = 0
Create mesh for time = 0
Create mesh for time = 0


SIMPLE: convergence criteria
    field U	 tolerance 0.0001
    field p	 tolerance 0.001
    field "(k|epsilon|omega)"	 tolerance 0.001

Reading field p



SIMPLE: convergence criteria
    field U	 tolerance 0.0001
    field p	 tolerance 0.001
    field "(k|epsilon|omega)"	 tolerance 0.001

Reading field p



SIMPLE: convergence criteria
    field U	 tolerance 0.0001
    field p	 tolerance 0.001
    field "(k|epsilon|omega)"	 tolerance 0.001

Reading field p

Reading field U

Reading field U

Reading field U



SIMPLE: convergence criteria
    field U	 tolerance 0.0001
    field p	 tolerance 0.001
    field "(k|epsilon|omega)"	 tolerance 0.001

Reading field p

Reading field U

Reading/calculating face flux field phi

Selecting incompressible transport model Newtonian
Selecting turbulence model type RAS
Selecting RAS turbulence model kOmega
Reading/calculating face flux field phi

Reading/calculating face flux field phi

Selecting incompressible transport model Newtonian
Selecting turbulence model type RAS
Selecting RAS turbulence model kOmega
Selecting incompressible transport model Newtonian
Selecting turbulence model type RAS
Selecting RAS turbulence model kOmega
Reading/calculating face flux field phi

Selecting incompressible transport model Newtonian
Selecting turbulence model type RAS
Selecting RAS turbulence model kOmega
bounding k, min: 0 max: 0.00271523 average: 3.62263e-07
bounding k, min: 0 max: 0.00271523 average: 3.62263e-07
RAS
{
    RASModel        kOmega;
    turbulence      on;
    printCoeffs     on;
    betaStar        0.09;
    beta            0.072;
    gamma           0.52;
    alphaK          0.5;
    alphaOmega      0.5;
}

No MRF models present

No finite volume options present

Starting time loop

forceCoeffs forceCoeffs1:
    rho: rhoInf
    Freestream density (rhoInf) set to 1
    Not including porosity effects
    magUInf: 10
    lRef   : 1
    Aref   : 1
    rhoInf : 1
    Selecting all coefficients
    - Drag force: Cd
    - Drag force front: Cd(f)
    - Drag force rear: Cd(r)
    - Lift force: Cl
    - Lift force front: Cl(f)
    - Lift force rear: Cl(r)
    - Pitch moment: CmPitch
    - Roll moment: CmRoll
    - Yaw moment: CmYaw
    - Side force: Cs
    - Side force front: Cs(f)
    - Side force rear: Cs(r)


Time = 1

bounding k, min: 0 max: 0.00271523 average: 3.62263e-07
RAS
{
    RASModel        kOmega;
    turbulence      on;
    printCoeffs     on;
    betaStar        0.09;
    beta            0.072;
    gamma           0.52;
    alphaK          0.5;
    alphaOmega      0.5;
}

No MRF models present

No finite volume options present

Starting time loop

forceCoeffs forceCoeffs1:
    rho: rhoInf
    Freestream density (rhoInf) set to 1
    Not including porosity effects
    magUInf: 10
    lRef   : 1
    Aref   : 1
    rhoInf : 1
    Selecting all coefficients
    - Drag force: Cd
    - Drag force front: Cd(f)
    - Drag force rear: Cd(r)
    - Lift force: Cl
    - Lift force front: Cl(f)
    - Lift force rear: Cl(r)
    - Pitch moment: CmPitch
    - Roll moment: CmRoll
    - Yaw moment: CmYaw
    - Side force: Cs
    - Side force front: Cs(f)
    - Side force rear: Cs(r)


Time = 1

RAS
{
    RASModel        kOmega;
    turbulence      on;
    printCoeffs     on;
    betaStar        0.09;
    beta            0.072;
    gamma           0.52;
    alphaK          0.5;
    alphaOmega      0.5;
}

No MRF models present

No finite volume options present

Starting time loop

forceCoeffs forceCoeffs1:
    rho: rhoInf
    Freestream density (rhoInf) set to 1
    Not including porosity effects
    magUInf: 10
    lRef   : 1
    Aref   : 1
    rhoInf : 1
    Selecting all coefficients
    - Drag force: Cd
    - Drag force front: Cd(f)
    - Drag force rear: Cd(r)
    - Lift force: Cl
    - Lift force front: Cl(f)
    - Lift force rear: Cl(r)
    - Pitch moment: CmPitch
    - Roll moment: CmRoll
    - Yaw moment: CmYaw
    - Side force: Cs
    - Side force front: Cs(f)
    - Side force rear: Cs(r)


Time = 1

bounding k, min: 0 max: 0.00271523 average: 3.62263e-07
RAS
{
    RASModel        kOmega;
    turbulence      on;
    printCoeffs     on;
    betaStar        0.09;
    beta            0.072;
    gamma           0.52;
    alphaK          0.5;
    alphaOmega      0.5;
}

No MRF models present

No finite volume options present

Starting time loop

forceCoeffs forceCoeffs1:
    rho: rhoInf
    Freestream density (rhoInf) set to 1
    Not including porosity effects
    magUInf: 10
    lRef   : 1
    Aref   : 1
    rhoInf : 1
    Selecting all coefficients
    - Drag force: Cd
    - Drag force front: Cd(f)
    - Drag force rear: Cd(r)
    - Lift force: Cl
    - Lift force front: Cl(f)
    - Lift force rear: Cl(r)
    - Pitch moment: CmPitch
    - Roll moment: CmRoll
    - Yaw moment: CmYaw
    - Side force: Cs
    - Side force front: Cs(f)
    - Side force rear: Cs(r)


Time = 1

smoothSolver:  Solving for Ux, Initial residual = 0.0309534, Final residual = 0.00198946, No Iterations 2
smoothSolver:  Solving for Ux, Initial residual = 0.0309534, Final residual = 0.00198946, No Iterations 2
smoothSolver:  Solving for Uy, Initial residual = 0.236843, Final residual = 0.0156184, No Iterations 2
smoothSolver:  Solving for Uy, Initial residual = 0.236843, Final residual = 0.0156184, No Iterations 2
smoothSolver:  Solving for Ux, Initial residual = 0.0309534, Final residual = 0.00198946, No Iterations 2
smoothSolver:  Solving for Uy, Initial residual = 0.236843, Final residual = 0.0156184, No Iterations 2
smoothSolver:  Solving for Ux, Initial residual = 0.0309534, Final residual = 0.00198946, No Iterations 2
smoothSolver:  Solving for Uy, Initial residual = 0.236843, Final residual = 0.0156184, No Iterations 2
GAMG:  Solving for p, Initial residual = 0.4623, Final residual = 0.0229224, No Iterations 4
GAMG:  Solving for p, Initial residual = 0.4623, Final residual = 0.0229224, No Iterations 4
GAMG:  Solving for p, Initial residual = 0.4623, Final residual = 0.0229224, No Iterations 4
GAMG:  Solving for p, Initial residual = 0.4623, Final residual = 0.0229224, No Iterations 4
GAMG:  Solving for p, Initial residual = 0.0115491, Final residual = 0.000515598, No Iterations 15
GAMG:  Solving for p, Initial residual = 0.0115491, Final residual = 0.000515598, No Iterations 15
GAMG:  Solving for p, Initial residual = 0.0115491, Final residual = 0.000515598, No Iterations 15
GAMG:  Solving for p, Initial residual = 0.0115491, Final residual = 0.000515598, No Iterations 15
GAMG:  Solving for p, Initial residual = 0.00340141, Final residual = 0.000161082, No Iterations 12
GAMG:  Solving for p, Initial residual = 0.00340141, Final residual = 0.000161082, No Iterations 12
GAMG:  Solving for p, Initial residual = 0.00340141, Final residual = 0.000161082, No Iterations 12
GAMG:  Solving for p, Initial residual = 0.00340141, Final residual = 0.000161082, No Iterations 12
GAMG:  Solving for p, Initial residual = 0.000336704, Final residual = 1.67656e-05, No Iterations 20
time step continuity errors : sum local = 3.02137e-06, global = 4.52186e-08, cumulative = 4.52186e-08
GAMG:  Solving for p, Initial residual = 0.000336704, Final residual = 1.67656e-05, No Iterations 20
time step continuity errors : sum local = 3.02137e-06, global = 4.52186e-08, cumulative = 4.52186e-08
GAMG:  Solving for p, Initial residual = 0.000336704, Final residual = 1.67656e-05, No Iterations 20
time step continuity errors : sum local = 3.02137e-06, global = 4.52186e-08, cumulative = 4.52186e-08
smoothSolver:  Solving for omega, Initial residual = 0.00279342, Final residual = 1.7504e-05, No Iterations 2
bounding omega, min: -3892.46 max: 5.39435e+06 average: 2762.67
smoothSolver:  Solving for omega, Initial residual = 0.00279342, Final residual = 1.7504e-05, No Iterations 2
bounding omega, min: -3892.46 max: 5.39435e+06 average: 2762.67
GAMG:  Solving for p, Initial residual = 0.000336704, Final residual = 1.67656e-05, No Iterations 20
time step continuity errors : sum local = 3.02137e-06, global = 4.52186e-08, cumulative = 4.52186e-08
smoothSolver:  Solving for k, Initial residual = 0.295502, Final residual = 0.000699527, No Iterations 2
bounding k, min: -2.75538e-05 max: 0.0145983 average: 1.58232e-05
smoothSolver:  Solving for k, Initial residual = 0.295502, Final residual = 0.000699527, No Iterations 2
smoothSolver:  Solving for omega, Initial residual = 0.00279342, Final residual = 1.7504e-05, No Iterations 2
bounding k, min: -2.75538e-05 max: 0.0145983 average: 1.58232e-05
bounding omega, min: -3892.46 max: 5.39435e+06 average: 2762.67
ExecutionTime = 12.3 s  ClockTime = 12 s

ExecutionTime = 12.34 s  ClockTime = 12 s

forceCoeffs forceCoeffs1 write:
    Coefficient	Total	Pressure	Viscous	Internal
    Cd:	-0.659082	-0.718712	0.0596302	0
    Cd(f):	-0.23092	-0.260711	0.0297913	0
    Cd(r):	-0.428162	-0.458001	0.0298389	0
    Cl:	-0.197243	-0.19729	4.76248e-05	0
    Cl(f):	-0.108499	-0.108504	5.83907e-06	0
    Cl(r):	-0.088744	-0.0887858	4.17858e-05	0
    CmPitch:	-0.00987727	-0.0098593	-1.79733e-05	0
    CmRoll:	0.0986213	0.0986451	-2.38124e-05	0
    CmYaw:	-0.329541	-0.359356	0.0298151	0
    Cs:	-4.13136e-21	-1.70894e-21	-2.42242e-21	0
    Cs(f):	-0.329541	-0.359356	0.0298151	0
    Cs(r):	0.329541	0.359356	-0.0298151	0

    writing force and moment coefficient files.
forceCoeffs forceCoeffs1 write:
    Coefficient	Total	Pressure	Viscous	Internal

Time = 2

    Cd:	-0.659082	-0.718712	0.0596302	0
    Cd(f):	-0.23092	-0.260711	0.0297913	0
    Cd(r):	-0.428162	-0.458001	0.0298389	0
    Cl:	-0.197243	-0.19729	4.76248e-05	0
    Cl(f):	-0.108499	-0.108504	5.83907e-06	0
    Cl(r):	-0.088744	-0.0887858	4.17858e-05	0
    CmPitch:	-0.00987727	-0.0098593	-1.79733e-05	0
    CmRoll:	0.0986213	0.0986451	-2.38124e-05	0
    CmYaw:	-0.329541	-0.359356	0.0298151	0
    Cs:	-4.13136e-21	-1.70894e-21	-2.42242e-21	0
    Cs(f):	-0.329541	-0.359356	0.0298151	0
    Cs(r):	0.329541	0.359356	-0.0298151	0

    writing force and moment coefficient files.

Time = 2

smoothSolver:  Solving for omega, Initial residual = 0.00279342, Final residual = 1.7504e-05, No Iterations 2
bounding omega, min: -3892.46 max: 5.39435e+06 average: 2762.67
smoothSolver:  Solving for k, Initial residual = 0.295502, Final residual = 0.000699527, No Iterations 2
bounding k, min: -2.75538e-05 max: 0.0145983 average: 1.58232e-05
ExecutionTime = 12.66 s  ClockTime = 12 s

forceCoeffs forceCoeffs1 write:
    Coefficient	Total	Pressure	Viscous	Internal
smoothSolver:  Solving for k, Initial residual = 0.295502, Final residual = 0.000699527, No Iterations 2
bounding k, min: -2.75538e-05 max: 0.0145983 average: 1.58232e-05
    Cd:	-0.659082	-0.718712	0.0596302	0
    Cd(f):	-0.23092	-0.260711	0.0297913	0
    Cd(r):	-0.428162	-0.458001	0.0298389	0
    Cl:	-0.197243	-0.19729	4.76248e-05	0
    Cl(f):	-0.108499	-0.108504	5.83907e-06	0
    Cl(r):	-0.088744	-0.0887858	4.17858e-05	0
    CmPitch:	-0.00987727	-0.0098593	-1.79733e-05	0
    CmRoll:	0.0986213	0.0986451	-2.38124e-05	0
    CmYaw:	-0.329541	-0.359356	0.0298151	0
    Cs:	-4.13136e-21	-1.70894e-21	-2.42242e-21	0
    Cs(f):	-0.329541	-0.359356	0.0298151	0
    Cs(r):	0.329541	0.359356	-0.0298151	0

    writing force and moment coefficient files.

Time = 2

ExecutionTime = 12.92 s  ClockTime = 13 s

forceCoeffs forceCoeffs1 write:
    Coefficient	Total	Pressure	Viscous	Internal
    Cd:	-0.659082	-0.718712	0.0596302	0
    Cd(f):	-0.23092	-0.260711	0.0297913	0
    Cd(r):	-0.428162	-0.458001	0.0298389	0
    Cl:	-0.197243	-0.19729	4.76248e-05	0
    Cl(f):	-0.108499	-0.108504	5.83907e-06	0
    Cl(r):	-0.088744	-0.0887858	4.17858e-05	0
    CmPitch:	-0.00987727	-0.0098593	-1.79733e-05	0
    CmRoll:	0.0986213	0.0986451	-2.38124e-05	0
    CmYaw:	-0.329541	-0.359356	0.0298151	0
    Cs:	-4.13136e-21	-1.70894e-21	-2.42242e-21	0
    Cs(f):	-0.329541	-0.359356	0.0298151	0
    Cs(r):	0.329541	0.359356	-0.0298151	0

    writing force and moment coefficient files.

Time = 2

smoothSolver:  Solving for Ux, Initial residual = 0.028664, Final residual = 0.00234412, No Iterations 2
smoothSolver:  Solving for Ux, Initial residual = 0.028664, Final residual = 0.00234412, No Iterations 2
smoothSolver:  Solving for Uy, Initial residual = 0.161399, Final residual = 0.0144379, No Iterations 2
smoothSolver:  Solving for Uy, Initial residual = 0.161399, Final residual = 0.0144379, No Iterations 2
smoothSolver:  Solving for Ux, Initial residual = 0.028664, Final residual = 0.00234412, No Iterations 2
smoothSolver:  Solving for Uy, Initial residual = 0.161399, Final residual = 0.0144379, No Iterations 2
smoothSolver:  Solving for Ux, Initial residual = 0.028664, Final residual = 0.00234412, No Iterations 2
smoothSolver:  Solving for Uy, Initial residual = 0.161399, Final residual = 0.0144379, No Iterations 2
GAMG:  Solving for p, Initial residual = 0.581047, Final residual = 0.0281715, No Iterations 6
GAMG:  Solving for p, Initial residual = 0.581047, Final residual = 0.0281715, No Iterations 6
GAMG:  Solving for p, Initial residual = 0.581047, Final residual = 0.0281715, No Iterations 6
GAMG:  Solving for p, Initial residual = 0.581047, Final residual = 0.0281715, No Iterations 6
GAMG:  Solving for p, Initial residual = 0.0612111, Final residual = 0.00269783, No Iterations 13
GAMG:  Solving for p, Initial residual = 0.0612111, Final residual = 0.00269783, No Iterations 13
GAMG:  Solving for p, Initial residual = 0.0612111, Final residual = 0.00269783, No Iterations 13
GAMG:  Solving for p, Initial residual = 0.0612111, Final residual = 0.00269783, No Iterations 13
GAMG:  Solving for p, Initial residual = 0.0078468, Final residual = 0.000385058, No Iterations 12
GAMG:  Solving for p, Initial residual = 0.0078468, Final residual = 0.000385058, No Iterations 12
GAMG:  Solving for p, Initial residual = 0.0078468, Final residual = 0.000385058, No Iterations 12
GAMG:  Solving for p, Initial residual = 0.0078468, Final residual = 0.000385058, No Iterations 12
GAMG:  Solving for p, Initial residual = 0.00102471, Final residual = 4.55791e-05, No Iterations 16
time step continuity errors : sum local = 1.03311e-05, global = 1.25869e-07, cumulative = 1.71088e-07
GAMG:  Solving for p, Initial residual = 0.00102471, Final residual = 4.55791e-05, No Iterations 16
time step continuity errors : sum local = 1.03311e-05, global = 1.25869e-07, cumulative = 1.71088e-07
smoothSolver:  Solving for omega, Initial residual = 0.0448195, Final residual = 0.00314865, No Iterations 2
bounding omega, min: -8.39976e+06 max: 1.27867e+08 average: 6985.27
smoothSolver:  Solving for omega, Initial residual = 0.0448195, Final residual = 0.00314865, No Iterations 2
GAMG:  Solving for p, Initial residual = 0.00102471, Final residual = 4.55791e-05, No Iterations 16
bounding omega, min: -8.39976e+06 max: 1.27867e+08 average: 6985.27
time step continuity errors : sum local = 1.03311e-05, global = 1.25869e-07, cumulative = 1.71088e-07
GAMG:  Solving for p, Initial residual = 0.00102471, Final residual = 4.55791e-05, No Iterations 16
time step continuity errors : sum local = 1.03311e-05, global = 1.25869e-07, cumulative = 1.71088e-07
smoothSolver:  Solving for k, Initial residual = 0.0796576, Final residual = 0.000471634, No Iterations 2
bounding k, min: -0.000952918 max: 1.07191 average: 0.000129554
smoothSolver:  Solving for k, Initial residual = 0.0796576, Final residual = 0.000471634, No Iterations 2
bounding k, min: -0.000952918 max: 1.07191 average: 0.000129554
smoothSolver:  Solving for omega, Initial residual = 0.0448195, Final residual = 0.00314865, No Iterations 2
bounding omega, min: -8.39976e+06 max: 1.27867e+08 average: 6985.27
smoothSolver:  Solving for omega, Initial residual = 0.0448195, Final residual = 0.00314865, No Iterations 2
bounding omega, min: -8.39976e+06 max: 1.27867e+08 average: 6985.27
smoothSolver:  Solving for k, Initial residual = 0.0796576, Final residual = 0.000471634, No Iterations 2
bounding k, min: -0.000952918 max: 1.07191 average: 0.000129554
smoothSolver:  Solving for k, Initial residual = 0.0796576, Final residual = 0.000471634, No Iterations 2
bounding k, min: -0.000952918 max: 1.07191 average: 0.000129554
ExecutionTime = 21.92 s  ClockTime = 22 s

forceCoeffs forceCoeffs1 write:
    Coefficient	Total	Pressure	Viscous	Internal
    Cd:	-1.71317	-1.79001	0.0768383	0
    Cd(f):	-0.703622	-0.742027	0.0384053	0
    Cd(r):	-1.00955	-1.04799	0.038433	0
    Cl:	-0.30593	-0.305958	2.77301e-05	0
    Cl(f):	-0.177284	-0.1773	1.61001e-05	0
    Cl(r):	-0.128646	-0.128658	1.163e-05	0
    CmPitch:	-0.0243189	-0.0243211	2.23503e-06	0
    CmRoll:	0.152965	0.152979	-1.38651e-05	0
    CmYaw:	-0.856587	-0.895007	0.0384191	0
    Cs:	-1.88967e-21	-1.09921e-21	-7.90453e-22	0
    Cs(f):	-0.856587	-0.895007	0.0384191	0
    Cs(r):	0.856587	0.895007	-0.0384191	0

    writing force and moment coefficient files.

End

ExecutionTime = 22.62 s  ClockTime = 22 s

forceCoeffs forceCoeffs1 write:
    Coefficient	Total	Pressure	Viscous	Internal
    Cd:	-1.71317	-1.79001	0.0768383	0
    Cd(f):	-0.703622	-0.742027	0.0384053	0
    Cd(r):	-1.00955	-1.04799	0.038433	0
    Cl:	-0.30593	-0.305958	2.77301e-05	0
    Cl(f):	-0.177284	-0.1773	1.61001e-05	0
    Cl(r):	-0.128646	-0.128658	1.163e-05	0
    CmPitch:	-0.0243189	-0.0243211	2.23503e-06	0
    CmRoll:	0.152965	0.152979	-1.38651e-05	0
    CmYaw:	-0.856587	-0.895007	0.0384191	0
    Cs:	-1.88967e-21	-1.09921e-21	-7.90453e-22	0
    Cs(f):	-0.856587	-0.895007	0.0384191	0
    Cs(r):	0.856587	0.895007	-0.0384191	0

    writing force and moment coefficient files.

End

ExecutionTime = 22.65 s  ClockTime = 22 s

ExecutionTime = 22.58 s  ClockTime = 22 s

forceCoeffs forceCoeffs1 write:
    Coefficient	Total	Pressure	Viscous	Internal
    Cd:	-1.71317	-1.79001	0.0768383	0
    Cd(f):	-0.703622	-0.742027	0.0384053	0
    Cd(r):	-1.00955	-1.04799	0.038433	0
    Cl:	-0.30593	-0.305958	2.77301e-05	0
    Cl(f):	-0.177284	-0.1773	1.61001e-05	0
    Cl(r):	-0.128646	-0.128658	1.163e-05	0
    CmPitch:	-0.0243189	-0.0243211	2.23503e-06	0
    CmRoll:	0.152965	0.152979	-1.38651e-05	0
    CmYaw:	-0.856587	-0.895007	0.0384191	0
    Cs:	-1.88967e-21	-1.09921e-21	-7.90453e-22	0
    Cs(f):	-0.856587	-0.895007	0.0384191	0
    Cs(r):	0.856587	0.895007	-0.0384191	0

    writing force and moment coefficient files.

End

forceCoeffs forceCoeffs1 write:
    Coefficient	Total	Pressure	Viscous	Internal
    Cd:	-1.71317	-1.79001	0.0768383	0
    Cd(f):	-0.703622	-0.742027	0.0384053	0
    Cd(r):	-1.00955	-1.04799	0.038433	0
    Cl:	-0.30593	-0.305958	2.77301e-05	0
    Cl(f):	-0.177284	-0.1773	1.61001e-05	0
    Cl(r):	-0.128646	-0.128658	1.163e-05	0
    CmPitch:	-0.0243189	-0.0243211	2.23503e-06	0
    CmRoll:	0.152965	0.152979	-1.38651e-05	0
    CmYaw:	-0.856587	-0.895007	0.0384191	0
    Cs:	-1.88967e-21	-1.09921e-21	-7.90453e-22	0
    Cs(f):	-0.856587	-0.895007	0.0384191	0
    Cs(r):	0.856587	0.895007	-0.0384191	0

    writing force and moment coefficient files.

End

