/*---------------------------------------------------------------------------*\
| =========                 |                                                 |
| \\      /  F ield         | OpenFOAM: The Open Source CFD Toolbox           |
|  \\    /   O peration     | Version:  2212                                  |
|   \\  /    A nd           | Website:  www.openfoam.com                      |
|    \\/     M anipulation  |                                                 |
\*---------------------------------------------------------------------------*/
Build  : _70874860-20230612 OPENFOAM=2212 patch=230612 version=2212
Arch   : "LSB;label=32;scalar=64"
Exec   : decomposePar -fields
Date   : Sep 20 2023
Time   : 12:52:32
Host   : maciek-gv62-7rc
PID    : 732072
I/O    : uncollated
Case   : /home/maciek/repository/airSupport/run/NACA0017_AoA[0-3]_k-omega
nProcs : 1
trapFpe: Floating point exception trapping enabled (FOAM_SIGFPE).
fileModificationChecking : Monitoring run-time modified files using timeStampMaster (fileModificationSkew 5, maxFileModificationPolls 20)
allowSystemOperations : Allowing user-supplied system call operations

// * * * * * * * * * * * * * * * * * * * * * * * * * * * * * * * * * * * * * //
Create time



Decomposing mesh



--> FOAM FATAL ERROR: (openfoam-2212 patch=230612)
Specified -fields, but the case was decomposed with 0 domains
instead of 4 domains as specified in decomposeParDict


    From decomposePar
    in file decomposePar.C at line 561.

FOAM exiting

