/*---------------------------------------------------------------------------*\
| =========                 |                                                 |
| \\      /  F ield         | OpenFOAM: The Open Source CFD Toolbox           |
|  \\    /   O peration     | Version:  2212                                  |
|   \\  /    A nd           | Website:  www.openfoam.com                      |
|    \\/     M anipulation  |                                                 |
\*---------------------------------------------------------------------------*/
Build  : _70874860-20230612 OPENFOAM=2212 patch=230612 version=2212
Arch   : "LSB;label=32;scalar=64"
Exec   : simpleFoam
Date   : Sep 20 2023
Time   : 10:55:32
Host   : maciek-gv62-7rc
PID    : 720799
/*---------------------------------------------------------------------------*\
| =========                 |                                                 |
| \\      /  F ield         | OpenFOAM: The Open Source CFD Toolbox           |
|  \\    /   O peration     | Version:  2212                                  |
|   \\  /    A nd           | Website:  www.openfoam.com                      |
|    \\/     M anipulation  |                                                 |
\*---------------------------------------------------------------------------*/
Build  : _70874860-20230612 OPENFOAM=2212 patch=230612 version=2212
Arch   : "LSB;label=32;scalar=64"
Exec   : simpleFoam
Date   : Sep 20 2023
Time   : 10:55:32
Host   : maciek-gv62-7rc
PID    : 720796
/*---------------------------------------------------------------------------*\
| =========                 |                                                 |
| \\      /  F ield         | OpenFOAM: The Open Source CFD Toolbox           |
|  \\    /   O peration     | Version:  2212                                  |
|   \\  /    A nd           | Website:  www.openfoam.com                      |
|    \\/     M anipulation  |                                                 |
\*---------------------------------------------------------------------------*/
Build  : _70874860-20230612 OPENFOAM=2212 patch=230612 version=2212
Arch   : "LSB;label=32;scalar=64"
Exec   : simpleFoam
Date   : Sep 20 2023
Time   : 10:55:32
Host   : maciek-gv62-7rc
PID    : 720797
/*---------------------------------------------------------------------------*\
| =========                 |                                                 |
| \\      /  F ield         | OpenFOAM: The Open Source CFD Toolbox           |
|  \\    /   O peration     | Version:  2212                                  |
|   \\  /    A nd           | Website:  www.openfoam.com                      |
|    \\/     M anipulation  |                                                 |
\*---------------------------------------------------------------------------*/
Build  : _70874860-20230612 OPENFOAM=2212 patch=230612 version=2212
Arch   : "LSB;label=32;scalar=64"
Exec   : simpleFoam
Date   : Sep 20 2023
Time   : 10:55:32
Host   : maciek-gv62-7rc
PID    : 720798
I/O    : uncollated
I/O    : uncollated
I/O    : uncollated
Case   : /home/maciek/repository/airSupport/run/NACA0017_AoA[0-3]_k-omega
nProcs : 1
I/O    : uncollated
Case   : /home/maciek/repository/airSupport/run/NACA0017_AoA[0-3]_k-omega
nProcs : 1
Case   : /home/maciek/repository/airSupport/run/NACA0017_AoA[0-3]_k-omega
nProcs : 1
Case   : /home/maciek/repository/airSupport/run/NACA0017_AoA[0-3]_k-omega
nProcs : 1
trapFpe: Floating point exception trapping enabled (FOAM_SIGFPE).
fileModificationChecking : Monitoring run-time modified files using timeStampMaster (fileModificationSkew 5, maxFileModificationPolls 20)
allowSystemOperations : Allowing user-supplied system call operations

trapFpe: Floating point exception trapping enabled (FOAM_SIGFPE).
fileModificationChecking : Monitoring run-time modified files using timeStampMaster (fileModificationSkew 5, maxFileModificationPolls 20)
allowSystemOperations : Allowing user-supplied system call operations

// * * * * * * * * * * * * * * * * * * * * * * * * * * * * * * * * * * * * * //
trapFpe: Floating point exception trapping enabled (FOAM_SIGFPE).
trapFpe: Floating point exception trapping enabled (FOAM_SIGFPE).
fileModificationChecking : Monitoring run-time modified files using timeStampMaster (fileModificationSkew 5, maxFileModificationPolls 20)
fileModificationChecking : Monitoring run-time modified files using timeStampMaster (fileModificationSkew 5, maxFileModificationPolls 20)
allowSystemOperations : Allowing user-supplied system call operations

// * * * * * * * * * * * * * * * * * * * * * * * * * * * * * * * * * * * * * //
allowSystemOperations : Allowing user-supplied system call operations

// * * * * * * * * * * * * * * * * * * * * * * * * * * * * * * * * * * * * * //
Create time

Create time

// * * * * * * * * * * * * * * * * * * * * * * * * * * * * * * * * * * * * * //
Create time

Create time

Create mesh for time = 0
Create mesh for time = 0
Create mesh for time = 0
Create mesh for time = 0


SIMPLE: convergence criteria
    field U	 tolerance 0.0001
    field p	 tolerance 0.001
    field "(k|epsilon|omega)"	 tolerance 0.001

Reading field p



SIMPLE: convergence criteria
    field U	 tolerance 0.0001
    field p	 tolerance 0.001
    field "(k|epsilon|omega)"	 tolerance 0.001

Reading field p



SIMPLE: convergence criteria
    field U	 tolerance 0.0001
    field p	 tolerance 0.001
    field "(k|epsilon|omega)"	 tolerance 0.001

Reading field p



SIMPLE: convergence criteria
    field U	 tolerance 0.0001
    field p	 tolerance 0.001
    field "(k|epsilon|omega)"	 tolerance 0.001

Reading field p

Reading field U

Reading field U

Reading field U

Reading field U

Reading/calculating face flux field phi

Selecting incompressible transport model Newtonian
Selecting turbulence model type RAS
Selecting RAS turbulence model kOmega
Reading/calculating face flux field phi

Selecting incompressible transport model Newtonian
Selecting turbulence model type RAS
Selecting RAS turbulence model kOmega
Reading/calculating face flux field phi

Selecting incompressible transport model Newtonian
Selecting turbulence model type RAS
Selecting RAS turbulence model kOmega
Reading/calculating face flux field phi

Selecting incompressible transport model Newtonian
Selecting turbulence model type RAS
Selecting RAS turbulence model kOmega
bounding k, min: 0 max: 1.06928 average: 0.000129988
RAS
{
    RASModel        kOmega;
    turbulence      on;
    printCoeffs     on;
    betaStar        0.09;
    beta            0.072;
    gamma           0.52;
    alphaK          0.5;
    alphaOmega      0.5;
}

No MRF models present

No finite volume options present

Starting time loop

forceCoeffs forceCoeffs1:
    rho: rhoInf
    Freestream density (rhoInf) set to 1
    Not including porosity effects
    magUInf: 10
    lRef   : 1
    Aref   : 1
    rhoInf : 1
    Selecting all coefficients
    - Drag force: Cd
    - Drag force front: Cd(f)
    - Drag force rear: Cd(r)
    - Lift force: Cl
    - Lift force front: Cl(f)
    - Lift force rear: Cl(r)
    - Pitch moment: CmPitch
    - Roll moment: CmRoll
    - Yaw moment: CmYaw
    - Side force: Cs
    - Side force front: Cs(f)
    - Side force rear: Cs(r)


Time = 1

bounding k, min: 0 max: 1.06928 average: 0.000129988
RAS
{
    RASModel        kOmega;
    turbulence      on;
    printCoeffs     on;
    betaStar        0.09;
    beta            0.072;
    gamma           0.52;
    alphaK          0.5;
    alphaOmega      0.5;
}

No MRF models present

No finite volume options present

Starting time loop

forceCoeffs forceCoeffs1:
    rho: rhoInf
    Freestream density (rhoInf) set to 1
    Not including porosity effects
    magUInf: 10
    lRef   : 1
    Aref   : 1
    rhoInf : 1
    Selecting all coefficients
    - Drag force: Cd
    - Drag force front: Cd(f)
    - Drag force rear: Cd(r)
    - Lift force: Cl
    - Lift force front: Cl(f)
    - Lift force rear: Cl(r)
    - Pitch moment: CmPitch
    - Roll moment: CmRoll
    - Yaw moment: CmYaw
    - Side force: Cs
    - Side force front: Cs(f)
    - Side force rear: Cs(r)


Time = 1

bounding k, min: 0 max: 1.06928 average: 0.000129988
bounding k, min: 0 max: 1.06928 average: 0.000129988
RAS
{
    RASModel        kOmega;
    turbulence      on;
    printCoeffs     on;
    betaStar        0.09;
    beta            0.072;
    gamma           0.52;
    alphaK          0.5;
    alphaOmega      0.5;
}

No MRF models present

No finite volume options present

Starting time loop

forceCoeffs forceCoeffs1:
    rho: rhoInf
    Freestream density (rhoInf) set to 1
    Not including porosity effects
    magUInf: 10
    lRef   : 1
    Aref   : 1
    rhoInf : 1
    Selecting all coefficients
    - Drag force: Cd
    - Drag force front: Cd(f)
    - Drag force rear: Cd(r)
    - Lift force: Cl
    - Lift force front: Cl(f)
    - Lift force rear: Cl(r)
    - Pitch moment: CmPitch
    - Roll moment: CmRoll
    - Yaw moment: CmYaw
    - Side force: Cs
    - Side force front: Cs(f)
    - Side force rear: Cs(r)


Time = 1

RAS
{
    RASModel        kOmega;
    turbulence      on;
    printCoeffs     on;
    betaStar        0.09;
    beta            0.072;
    gamma           0.52;
    alphaK          0.5;
    alphaOmega      0.5;
}

No MRF models present

No finite volume options present

Starting time loop

forceCoeffs forceCoeffs1:
    rho: rhoInf
    Freestream density (rhoInf) set to 1
    Not including porosity effects
    magUInf: 10
    lRef   : 1
    Aref   : 1
    rhoInf : 1
    Selecting all coefficients
    - Drag force: Cd
    - Drag force front: Cd(f)
    - Drag force rear: Cd(r)
    - Lift force: Cl
    - Lift force front: Cl(f)
    - Lift force rear: Cl(r)
    - Pitch moment: CmPitch
    - Roll moment: CmRoll
    - Yaw moment: CmYaw
    - Side force: Cs
    - Side force front: Cs(f)
    - Side force rear: Cs(r)


Time = 1

smoothSolver:  Solving for Ux, Initial residual = 0.150721, Final residual = 0.0120013, No Iterations 2
smoothSolver:  Solving for Uy, Initial residual = 0.114503, Final residual = 0.007277, No Iterations 2
smoothSolver:  Solving for Ux, Initial residual = 0.150721, Final residual = 0.0120013, No Iterations 2
smoothSolver:  Solving for Uy, Initial residual = 0.114503, Final residual = 0.007277, No Iterations 2
smoothSolver:  Solving for Ux, Initial residual = 0.150721, Final residual = 0.0120013, No Iterations 2
smoothSolver:  Solving for Uy, Initial residual = 0.114503, Final residual = 0.007277, No Iterations 2
smoothSolver:  Solving for Ux, Initial residual = 0.150721, Final residual = 0.0120013, No Iterations 2
smoothSolver:  Solving for Uy, Initial residual = 0.114503, Final residual = 0.007277, No Iterations 2
GAMG:  Solving for p, Initial residual = 0.712863, Final residual = 0.0331307, No Iterations 12
GAMG:  Solving for p, Initial residual = 0.712863, Final residual = 0.0331307, No Iterations 12
GAMG:  Solving for p, Initial residual = 0.712863, Final residual = 0.0331307, No Iterations 12
GAMG:  Solving for p, Initial residual = 0.712863, Final residual = 0.0331307, No Iterations 12
GAMG:  Solving for p, Initial residual = 0.00174034, Final residual = 8.40308e-05, No Iterations 18
GAMG:  Solving for p, Initial residual = 0.00174034, Final residual = 8.40308e-05, No Iterations 18
GAMG:  Solving for p, Initial residual = 0.00174034, Final residual = 8.40308e-05, No Iterations 18
GAMG:  Solving for p, Initial residual = 0.00174034, Final residual = 8.40308e-05, No Iterations 18
GAMG:  Solving for p, Initial residual = 0.000403065, Final residual = 1.99821e-05, No Iterations 14
GAMG:  Solving for p, Initial residual = 0.000403065, Final residual = 1.99821e-05, No Iterations 14
GAMG:  Solving for p, Initial residual = 0.000403065, Final residual = 1.99821e-05, No Iterations 14
GAMG:  Solving for p, Initial residual = 0.000403065, Final residual = 1.99821e-05, No Iterations 14
GAMG:  Solving for p, Initial residual = 4.74835e-05, Final residual = 2.25668e-06, No Iterations 22
time step continuity errors : sum local = 1.23359e-05, global = 4.42318e-07, cumulative = 4.42318e-07
GAMG:  Solving for p, Initial residual = 4.74835e-05, Final residual = 2.25668e-06, No Iterations 22
time step continuity errors : sum local = 1.23359e-05, global = 4.42318e-07, cumulative = 4.42318e-07
GAMG:  Solving for p, Initial residual = 4.74835e-05, Final residual = 2.25668e-06, No Iterations 22
time step continuity errors : sum local = 1.23359e-05, global = 4.42318e-07, cumulative = 4.42318e-07
GAMG:  Solving for p, Initial residual = 4.74835e-05, Final residual = 2.25668e-06, No Iterations 22
time step continuity errors : sum local = 1.23359e-05, global = 4.42318e-07, cumulative = 4.42318e-07
smoothSolver:  Solving for omega, Initial residual = 0.151724, Final residual = 0.00327893, No Iterations 2
bounding omega, min: -4036.75 max: 6.5143e+07 average: 5598.73
smoothSolver:  Solving for omega, Initial residual = 0.151724, Final residual = 0.00327893, No Iterations 2
bounding omega, min: -4036.75 max: 6.5143e+07 average: 5598.73
smoothSolver:  Solving for omega, Initial residual = 0.151724, Final residual = 0.00327893, No Iterations 2
bounding omega, min: -4036.75 max: 6.5143e+07 average: 5598.73
smoothSolver:  Solving for k, Initial residual = 0.0683305, Final residual = 0.00333091, No Iterations 2
bounding k, min: -0.013313 max: 7.82953 average: 0.000468431
ExecutionTime = 15.61 s  ClockTime = 16 s

smoothSolver:  Solving for omega, Initial residual = 0.151724, Final residual = 0.00327893, No Iterations 2
bounding omega, min: -4036.75 max: 6.5143e+07 average: 5598.73
smoothSolver:  Solving for k, Initial residual = 0.0683305, Final residual = 0.00333091, No Iterations 2
bounding k, min: -0.013313 max: 7.82953 average: 0.000468431
ExecutionTime = 15.72 s  ClockTime = 16 s

smoothSolver:  Solving for k, Initial residual = 0.0683305, Final residual = 0.00333091, No Iterations 2
bounding k, min: -0.013313 max: 7.82953 average: 0.000468431
forceCoeffs forceCoeffs1 write:
    Coefficient	Total	Pressure	Viscous	Internal
    Cd:	543.282	543.183	0.0988953	0
    Cd(f):	268.858	268.812	0.046368	0
    Cd(r):	274.424	274.371	0.0525273	0
    Cl:	5.56532	5.55916	0.00615939	0
    Cl(f):	5.38877	5.38256	0.0062076	0
    Cl(r):	0.176546	0.176595	-4.82147e-05	0
    CmPitch:	2.60611	2.60298	0.00312791	0
    CmRoll:	-2.78266	-2.77958	-0.00307969	0
    CmYaw:	271.641	271.591	0.0494476	0
    Cs:	2.90867e-19	2.90818e-19	4.84946e-23	0
    Cs(f):	271.641	271.591	0.0494476	0
    Cs(r):	-271.641	-271.591	-0.0494476	0

    writing force and moment coefficient files.

Time = 2

ExecutionTime = 15.85 s  ClockTime = 16 s

forceCoeffs forceCoeffs1 write:
    Coefficient	Total	Pressure	Viscous	Internal
    Cd:	543.282	543.183	0.0988953	0
    Cd(f):	268.858	268.812	0.046368	0
    Cd(r):	274.424	274.371	0.0525273	0
    Cl:	5.56532	5.55916	0.00615939	0
    Cl(f):	5.38877	5.38256	0.0062076	0
    Cl(r):	0.176546	0.176595	-4.82147e-05	0
    CmPitch:	2.60611	2.60298	0.00312791	0
    CmRoll:	-2.78266	-2.77958	-0.00307969	0
    CmYaw:	271.641	271.591	0.0494476	0
    Cs:	2.90867e-19	2.90818e-19	4.84946e-23	0
    Cs(f):	271.641	271.591	0.0494476	0
    Cs(r):	-271.641	-271.591	-0.0494476	0

    writing force and moment coefficient files.

Time = 2

forceCoeffs forceCoeffs1 write:
    Coefficient	Total	Pressure	Viscous	Internal
    Cd:	543.282	543.183	0.0988953	0
    Cd(f):	268.858	268.812	0.046368	0
    Cd(r):	274.424	274.371	0.0525273	0
    Cl:	5.56532	5.55916	0.00615939	0
    Cl(f):	5.38877	5.38256	0.0062076	0
    Cl(r):	0.176546	0.176595	-4.82147e-05	0
    CmPitch:	2.60611	2.60298	0.00312791	0
    CmRoll:	-2.78266	-2.77958	-0.00307969	0
    CmYaw:	271.641	271.591	0.0494476	0
    Cs:	2.90867e-19	2.90818e-19	4.84946e-23	0
    Cs(f):	271.641	271.591	0.0494476	0
    Cs(r):	-271.641	-271.591	-0.0494476	0

    writing force and moment coefficient files.

Time = 2

smoothSolver:  Solving for k, Initial residual = 0.0683305, Final residual = 0.00333091, No Iterations 2
bounding k, min: -0.013313 max: 7.82953 average: 0.000468431
ExecutionTime = 16.03 s  ClockTime = 16 s

forceCoeffs forceCoeffs1 write:
    Coefficient	Total	Pressure	Viscous	Internal
    Cd:	543.282	543.183	0.0988953	0
    Cd(f):	268.858	268.812	0.046368	0
    Cd(r):	274.424	274.371	0.0525273	0
    Cl:	5.56532	5.55916	0.00615939	0
    Cl(f):	5.38877	5.38256	0.0062076	0
    Cl(r):	0.176546	0.176595	-4.82147e-05	0
    CmPitch:	2.60611	2.60298	0.00312791	0
    CmRoll:	-2.78266	-2.77958	-0.00307969	0
    CmYaw:	271.641	271.591	0.0494476	0
    Cs:	2.90867e-19	2.90818e-19	4.84946e-23	0
    Cs(f):	271.641	271.591	0.0494476	0
    Cs(r):	-271.641	-271.591	-0.0494476	0

    writing force and moment coefficient files.

Time = 2

smoothSolver:  Solving for Ux, Initial residual = 0.445891, Final residual = 0.0418821, No Iterations 2
smoothSolver:  Solving for Uy, Initial residual = 0.254562, Final residual = 0.0181228, No Iterations 2
smoothSolver:  Solving for Ux, Initial residual = 0.445891, Final residual = 0.0418821, No Iterations 2
smoothSolver:  Solving for Ux, Initial residual = 0.445891, Final residual = 0.0418821, No Iterations 2
smoothSolver:  Solving for Uy, Initial residual = 0.254562, Final residual = 0.0181228, No Iterations 2
smoothSolver:  Solving for Uy, Initial residual = 0.254562, Final residual = 0.0181228, No Iterations 2
smoothSolver:  Solving for Ux, Initial residual = 0.445891, Final residual = 0.0418821, No Iterations 2
smoothSolver:  Solving for Uy, Initial residual = 0.254562, Final residual = 0.0181228, No Iterations 2
GAMG:  Solving for p, Initial residual = 0.208649, Final residual = 0.00712769, No Iterations 4
GAMG:  Solving for p, Initial residual = 0.208649, Final residual = 0.00712769, No Iterations 4
GAMG:  Solving for p, Initial residual = 0.208649, Final residual = 0.00712769, No Iterations 4
GAMG:  Solving for p, Initial residual = 0.208649, Final residual = 0.00712769, No Iterations 4
GAMG:  Solving for p, Initial residual = 0.033039, Final residual = 0.00160995, No Iterations 24
GAMG:  Solving for p, Initial residual = 0.033039, Final residual = 0.00160995, No Iterations 24
GAMG:  Solving for p, Initial residual = 0.033039, Final residual = 0.00160995, No Iterations 24
GAMG:  Solving for p, Initial residual = 0.033039, Final residual = 0.00160995, No Iterations 24
GAMG:  Solving for p, Initial residual = 0.0149963, Final residual = 0.000701019, No Iterations 13
GAMG:  Solving for p, Initial residual = 0.0149963, Final residual = 0.000701019, No Iterations 13
GAMG:  Solving for p, Initial residual = 0.0149963, Final residual = 0.000701019, No Iterations 13
GAMG:  Solving for p, Initial residual = 0.0149963, Final residual = 0.000701019, No Iterations 13
GAMG:  Solving for p, Initial residual = 0.00150806, Final residual = 6.80835e-05, No Iterations 20
GAMG:  Solving for p, Initial residual = 0.00150806, Final residual = 6.80835e-05, No Iterations 20
time step continuity errors : sum local = 2.39163e-05, global = 8.34805e-07, cumulative = 1.27712e-06
GAMG:  Solving for p, Initial residual = 0.00150806, Final residual = 6.80835e-05, No Iterations 20
time step continuity errors : sum local = 2.39163e-05, global = 8.34805e-07, cumulative = 1.27712e-06
time step continuity errors : sum local = 2.39163e-05, global = 8.34805e-07, cumulative = 1.27712e-06
GAMG:  Solving for p, Initial residual = 0.00150806, Final residual = 6.80835e-05, No Iterations 20
time step continuity errors : sum local = 2.39163e-05, global = 8.34805e-07, cumulative = 1.27712e-06
smoothSolver:  Solving for omega, Initial residual = 0.491754, Final residual = 0.0117769, No Iterations 2
bounding omega, min: -6.76465e+07 max: 1.9048e+09 average: 31919.5
smoothSolver:  Solving for omega, Initial residual = 0.491754, Final residual = 0.0117769, No Iterations 2
bounding omega, min: -6.76465e+07 max: 1.9048e+09 average: 31919.5
smoothSolver:  Solving for omega, Initial residual = 0.491754, Final residual = 0.0117769, No Iterations 2
bounding omega, min: -6.76465e+07 max: 1.9048e+09 average: 31919.5
smoothSolver:  Solving for omega, Initial residual = 0.491754, Final residual = 0.0117769, No Iterations 2
bounding omega, min: -6.76465e+07 max: 1.9048e+09 average: 31919.5
smoothSolver:  Solving for k, Initial residual = 0.154622, Final residual = 0.00109046, No Iterations 2
bounding k, min: -2.36684 max: 116.187 average: 0.00258925
smoothSolver:  Solving for k, Initial residual = 0.154622, Final residual = 0.00109046, No Iterations 2
bounding k, min: -2.36684 max: 116.187 average: 0.00258925
smoothSolver:  Solving for k, Initial residual = 0.154622, Final residual = 0.00109046, No Iterations 2
bounding k, min: -2.36684 max: 116.187 average: 0.00258925
smoothSolver:  Solving for k, Initial residual = 0.154622, Final residual = 0.00109046, No Iterations 2
bounding k, min: -2.36684 max: 116.187 average: 0.00258925
ExecutionTime = 30.86 s  ClockTime = 32 s

ExecutionTime = 30.86 s  ClockTime = 32 s

ExecutionTime = 30.62 s  ClockTime = 32 s

forceCoeffs forceCoeffs1 write:
    Coefficient	Total	Pressure	Viscous	Internal
    Cd:	378.154	378.257	-0.103797	0
    Cd(f):	187.597	187.635	-0.0377917	0
    Cd(r):	190.557	190.623	-0.0660049	0
    Cl:	2.95988	2.98809	-0.0282132	0
    Cl(f):	2.82508	2.85266	-0.0275752	0
    Cl(r):	0.134793	0.135432	-0.000638019	0
    CmPitch:	1.34514	1.35861	-0.0134686	0
    CmRoll:	-1.47994	-1.49404	0.0141066	0
    CmYaw:	189.077	189.129	-0.0518983	0
    Cs:	2.23278e-19	2.2301e-19	2.68392e-22	0
    Cs(f):	189.077	189.129	-0.0518983	0
    Cs(r):	-189.077	-189.129	0.0518983	0

    writing force and moment coefficient files.

End

ExecutionTime = 30.87 s  ClockTime = 32 s

forceCoeffs forceCoeffs1 write:
    Coefficient	Total	Pressure	Viscous	Internal
    Cd:	378.154	378.257	-0.103797	0
    Cd(f):	187.597	187.635	-0.0377917	0
    Cd(r):	190.557	190.623	-0.0660049	0
    Cl:	2.95988	2.98809	-0.0282132	0
    Cl(f):	2.82508	2.85266	-0.0275752	0
    Cl(r):	0.134793	0.135432	-0.000638019	0
    CmPitch:	1.34514	1.35861	-0.0134686	0
    CmRoll:	-1.47994	-1.49404	0.0141066	0
    CmYaw:	189.077	189.129	-0.0518983	0
    Cs:	2.23278e-19	2.2301e-19	2.68392e-22	0
    Cs(f):	189.077	189.129	-0.0518983	0
    Cs(r):	-189.077	-189.129	0.0518983	0

    writing force and moment coefficient files.

End

forceCoeffs forceCoeffs1 write:
    Coefficient	Total	Pressure	Viscous	Internal
    Cd:	378.154	378.257	-0.103797	0
    Cd(f):	187.597	187.635	-0.0377917	0
    Cd(r):	190.557	190.623	-0.0660049	0
    Cl:	2.95988	2.98809	-0.0282132	0
    Cl(f):	2.82508	2.85266	-0.0275752	0
    Cl(r):	0.134793	0.135432	-0.000638019	0
    CmPitch:	1.34514	1.35861	-0.0134686	0
    CmRoll:	-1.47994	-1.49404	0.0141066	0
    CmYaw:	189.077	189.129	-0.0518983	0
    Cs:	2.23278e-19	2.2301e-19	2.68392e-22	0
    Cs(f):	189.077	189.129	-0.0518983	0
    Cs(r):	-189.077	-189.129	0.0518983	0

    writing force and moment coefficient files.

End

forceCoeffs forceCoeffs1 write:
    Coefficient	Total	Pressure	Viscous	Internal
    Cd:	378.154	378.257	-0.103797	0
    Cd(f):	187.597	187.635	-0.0377917	0
    Cd(r):	190.557	190.623	-0.0660049	0
    Cl:	2.95988	2.98809	-0.0282132	0
    Cl(f):	2.82508	2.85266	-0.0275752	0
    Cl(r):	0.134793	0.135432	-0.000638019	0
    CmPitch:	1.34514	1.35861	-0.0134686	0
    CmRoll:	-1.47994	-1.49404	0.0141066	0
    CmYaw:	189.077	189.129	-0.0518983	0
    Cs:	2.23278e-19	2.2301e-19	2.68392e-22	0
    Cs(f):	189.077	189.129	-0.0518983	0
    Cs(r):	-189.077	-189.129	0.0518983	0

    writing force and moment coefficient files.

End

