/*---------------------------------------------------------------------------*\
| =========                 |                                                 |
| \\      /  F ield         | OpenFOAM: The Open Source CFD Toolbox           |
|  \\    /   O peration     | Version:  2212                                  |
|   \\  /    A nd           | Website:  www.openfoam.com                      |
|    \\/     M anipulation  |                                                 |
\*---------------------------------------------------------------------------*/
Build  : _70874860-20230612 OPENFOAM=2212 patch=230612 version=2212
Arch   : "LSB;label=32;scalar=64"
Exec   : simpleFoam
Date   : Sep 20 2023
Time   : 12:53:23
Host   : maciek-gv62-7rc
PID    : 732717
/*---------------------------------------------------------------------------*\
| =========                 |                                                 |
| \\      /  F ield         | OpenFOAM: The Open Source CFD Toolbox           |
|  \\    /   O peration     | Version:  2212                                  |
|   \\  /    A nd           | Website:  www.openfoam.com                      |
|    \\/     M anipulation  |                                                 |
\*---------------------------------------------------------------------------*/
Build  : _70874860-20230612 OPENFOAM=2212 patch=230612 version=2212
Arch   : "LSB;label=32;scalar=64"
Exec   : simpleFoam
Date   : Sep 20 2023
Time   : 12:53:23
Host   : maciek-gv62-7rc
PID    : 732718
/*---------------------------------------------------------------------------*\
| =========                 |                                                 |
| \\      /  F ield         | OpenFOAM: The Open Source CFD Toolbox           |
|  \\    /   O peration     | Version:  2212                                  |
|   \\  /    A nd           | Website:  www.openfoam.com                      |
|    \\/     M anipulation  |                                                 |
\*---------------------------------------------------------------------------*/
Build  : _70874860-20230612 OPENFOAM=2212 patch=230612 version=2212
Arch   : "LSB;label=32;scalar=64"
Exec   : simpleFoam
Date   : Sep 20 2023
Time   : 12:53:23
Host   : maciek-gv62-7rc
PID    : 732719
/*---------------------------------------------------------------------------*\
| =========                 |                                                 |
| \\      /  F ield         | OpenFOAM: The Open Source CFD Toolbox           |
|  \\    /   O peration     | Version:  2212                                  |
|   \\  /    A nd           | Website:  www.openfoam.com                      |
|    \\/     M anipulation  |                                                 |
\*---------------------------------------------------------------------------*/
Build  : _70874860-20230612 OPENFOAM=2212 patch=230612 version=2212
Arch   : "LSB;label=32;scalar=64"
Exec   : simpleFoam
Date   : Sep 20 2023
Time   : 12:53:23
Host   : maciek-gv62-7rc
PID    : 732716
I/O    : uncollated
I/O    : uncollated
Case   : /home/maciek/repository/airSupport/run/NACA0017_AoA[0-3]_k-omega
nProcs : 1
trapFpe: Floating point exception trapping enabled (FOAM_SIGFPE).
fileModificationChecking : Monitoring run-time modified files using timeStampMaster (fileModificationSkew 5, maxFileModificationPolls 20)
allowSystemOperations : Allowing user-supplied system call operations

// * * * * * * * * * * * * * * * * * * * * * * * * * * * * * * * * * * * * * //
Case   : /home/maciek/repository/airSupport/run/NACA0017_AoA[0-3]_k-omega
nProcs : 1
trapFpe: Floating point exception trapping enabled (FOAM_SIGFPE).
fileModificationChecking : Monitoring run-time modified files using timeStampMaster (fileModificationSkew 5, maxFileModificationPolls 20)
allowSystemOperations : Allowing user-supplied system call operations

// * * * * * * * * * * * * * * * * * * * * * * * * * * * * * * * * * * * * * //
Create time

I/O    : uncollated
Create time

I/O    : uncollated
Case   : /home/maciek/repository/airSupport/run/NACA0017_AoA[0-3]_k-omega
nProcs : 1
Case   : /home/maciek/repository/airSupport/run/NACA0017_AoA[0-3]_k-omega
nProcs : 1
trapFpe: Floating point exception trapping enabled (FOAM_SIGFPE).
fileModificationChecking : Monitoring run-time modified files using timeStampMaster (fileModificationSkew 5, maxFileModificationPolls 20)
allowSystemOperations : Allowing user-supplied system call operations
trapFpe: Floating point exception trapping enabled (FOAM_SIGFPE).
fileModificationChecking : Monitoring run-time modified files using timeStampMaster (fileModificationSkew 5, maxFileModificationPolls 20)
allowSystemOperations : Allowing user-supplied system call operations


// * * * * * * * * * * * * * * * * * * * * * * * * * * * * * * * * * * * * * //
// * * * * * * * * * * * * * * * * * * * * * * * * * * * * * * * * * * * * * //
Create time

Create time

Create mesh for time = 0
Create mesh for time = 0
Create mesh for time = 0
Create mesh for time = 0


SIMPLE: convergence criteria
    field U	 tolerance 0.0001
    field p	 tolerance 0.001
    field "(k|epsilon|omega)"	 tolerance 0.001

Reading field p



SIMPLE: convergence criteria
    field U	 tolerance 0.0001
    field p	 tolerance 0.001
    field "(k|epsilon|omega)"	 tolerance 0.001

Reading field p



SIMPLE: convergence criteria
    field U	 tolerance 0.0001
    field p	 tolerance 0.001
    field "(k|epsilon|omega)"	 tolerance 0.001

Reading field p



SIMPLE: convergence criteria
    field U	 tolerance 0.0001
    field p	 tolerance 0.001
    field "(k|epsilon|omega)"	 tolerance 0.001

Reading field p

Reading field U

Reading field U

Reading field U

Reading field U

Reading/calculating face flux field phi

Reading/calculating face flux field phi

Selecting incompressible transport model Newtonian
Selecting turbulence model type RAS
Selecting RAS turbulence model kOmega
Selecting incompressible transport model Newtonian
Selecting turbulence model type RAS
Selecting RAS turbulence model kOmega
Reading/calculating face flux field phi

Selecting incompressible transport model Newtonian
Selecting turbulence model type RAS
Selecting RAS turbulence model kOmega
Reading/calculating face flux field phi

Selecting incompressible transport model Newtonian
Selecting turbulence model type RAS
Selecting RAS turbulence model kOmega
bounding k, min: 0 max: 1.07191 average: 0.000130009
bounding k, min: 0 max: 1.07191 average: 0.000130009
bounding k, min: 0 max: 1.07191 average: 0.000130009
RAS
{
    RASModel        kOmega;
    turbulence      on;
    printCoeffs     on;
    betaStar        0.09;
    beta            0.072;
    gamma           0.52;
    alphaK          0.5;
    alphaOmega      0.5;
}

No MRF models present

No finite volume options present

Starting time loop

forceCoeffs forceCoeffs1:
    rho: rhoInf
    Freestream density (rhoInf) set to 1
    Not including porosity effects
    magUInf: 10
    lRef   : 1
    Aref   : 1
    rhoInf : 1
    Selecting all coefficients
    - Drag force: Cd
    - Drag force front: Cd(f)
    - Drag force rear: Cd(r)
    - Lift force: Cl
    - Lift force front: Cl(f)
    - Lift force rear: Cl(r)
    - Pitch moment: CmPitch
    - Roll moment: CmRoll
    - Yaw moment: CmYaw
    - Side force: Cs
    - Side force front: Cs(f)
    - Side force rear: Cs(r)


Time = 1

RAS
{
    RASModel        kOmega;
    turbulence      on;
    printCoeffs     on;
    betaStar        0.09;
    beta            0.072;
    gamma           0.52;
    alphaK          0.5;
    alphaOmega      0.5;
}

No MRF models present

No finite volume options present

Starting time loop

forceCoeffs forceCoeffs1:
    rho: rhoInf
    Freestream density (rhoInf) set to 1
    Not including porosity effects
    magUInf: 10
    lRef   : 1
    Aref   : 1
    rhoInf : 1
RAS
{
    Selecting all coefficients
    RASModel        kOmega;
    turbulence      on;
    printCoeffs     on;
    betaStar        0.09;
    beta            0.072;
    - Drag force: Cd
    - Drag force front: Cd(f)
    - Drag force rear: Cd(r)
    - Lift force: Cl
    gamma           0.52;
    alphaK          0.5;
    alphaOmega      0.5;
}

    - Lift force front: Cl(f)
    - Lift force rear: Cl(r)
    - Pitch moment: CmPitch
    - Roll moment: CmRoll
    - Yaw moment: CmYaw
    - Side force: Cs
    - Side force front: Cs(f)
    - Side force rear: Cs(r)

No MRF models present


Time = 1

No finite volume options present

Starting time loop

forceCoeffs forceCoeffs1:
    rho: rhoInf
    Freestream density (rhoInf) set to 1
    Not including porosity effects
    magUInf: 10
    lRef   : 1
    Aref   : 1
    rhoInf : 1
    Selecting all coefficients
    - Drag force: Cd
    - Drag force front: Cd(f)
    - Drag force rear: Cd(r)
    - Lift force: Cl
    - Lift force front: Cl(f)
    - Lift force rear: Cl(r)
    - Pitch moment: CmPitch
    - Roll moment: CmRoll
    - Yaw moment: CmYaw
    - Side force: Cs
    - Side force front: Cs(f)
    - Side force rear: Cs(r)


Time = 1

bounding k, min: 0 max: 1.07191 average: 0.000130009
RAS
{
    RASModel        kOmega;
    turbulence      on;
    printCoeffs     on;
    betaStar        0.09;
    beta            0.072;
    gamma           0.52;
    alphaK          0.5;
    alphaOmega      0.5;
}

No MRF models present

No finite volume options present

Starting time loop

forceCoeffs forceCoeffs1:
    rho: rhoInf
    Freestream density (rhoInf) set to 1
    Not including porosity effects
    magUInf: 10
    lRef   : 1
    Aref   : 1
    rhoInf : 1
    Selecting all coefficients
    - Drag force: Cd
    - Drag force front: Cd(f)
    - Drag force rear: Cd(r)
    - Lift force: Cl
    - Lift force front: Cl(f)
    - Lift force rear: Cl(r)
    - Pitch moment: CmPitch
    - Roll moment: CmRoll
    - Yaw moment: CmYaw
    - Side force: Cs
    - Side force front: Cs(f)
    - Side force rear: Cs(r)


Time = 1

smoothSolver:  Solving for Ux, Initial residual = 0.150664, Final residual = 0.0120113, No Iterations 2
smoothSolver:  Solving for Uy, Initial residual = 0.114339, Final residual = 0.00726808, No Iterations 2
smoothSolver:  Solving for Ux, Initial residual = 0.150664, Final residual = 0.0120113, No Iterations 2
smoothSolver:  Solving for Uy, Initial residual = 0.114339, Final residual = 0.00726808, No Iterations 2
smoothSolver:  Solving for Ux, Initial residual = 0.150664, Final residual = 0.0120113, No Iterations 2
smoothSolver:  Solving for Uy, Initial residual = 0.114339, Final residual = 0.00726808, No Iterations 2
smoothSolver:  Solving for Ux, Initial residual = 0.150664, Final residual = 0.0120113, No Iterations 2
smoothSolver:  Solving for Uy, Initial residual = 0.114339, Final residual = 0.00726808, No Iterations 2
GAMG:  Solving for p, Initial residual = 0.71186, Final residual = 0.0330548, No Iterations 12
GAMG:  Solving for p, Initial residual = 0.71186, Final residual = 0.0330548, No Iterations 12
GAMG:  Solving for p, Initial residual = 0.71186, Final residual = 0.0330548, No Iterations 12
GAMG:  Solving for p, Initial residual = 0.71186, Final residual = 0.0330548, No Iterations 12
GAMG:  Solving for p, Initial residual = 0.00171266, Final residual = 8.50012e-05, No Iterations 18
GAMG:  Solving for p, Initial residual = 0.00171266, Final residual = 8.50012e-05, No Iterations 18
GAMG:  Solving for p, Initial residual = 0.00171266, Final residual = 8.50012e-05, No Iterations 18
GAMG:  Solving for p, Initial residual = 0.00171266, Final residual = 8.50012e-05, No Iterations 18
GAMG:  Solving for p, Initial residual = 0.00040074, Final residual = 2.00187e-05, No Iterations 15
GAMG:  Solving for p, Initial residual = 0.00040074, Final residual = 2.00187e-05, No Iterations 15
GAMG:  Solving for p, Initial residual = 0.00040074, Final residual = 2.00187e-05, No Iterations 15
GAMG:  Solving for p, Initial residual = 0.00040074, Final residual = 2.00187e-05, No Iterations 15
GAMG:  Solving for p, Initial residual = 4.7788e-05, Final residual = 2.25084e-06, No Iterations 23
time step continuity errors : sum local = 1.24325e-05, global = 2.66033e-07, cumulative = 2.66033e-07
GAMG:  Solving for p, Initial residual = 4.7788e-05, Final residual = 2.25084e-06, No Iterations 23
time step continuity errors : sum local = 1.24325e-05, global = 2.66033e-07, cumulative = 2.66033e-07
GAMG:  Solving for p, Initial residual = 4.7788e-05, Final residual = 2.25084e-06, No Iterations 23
time step continuity errors : sum local = 1.24325e-05, global = 2.66033e-07, cumulative = 2.66033e-07
GAMG:  Solving for p, Initial residual = 4.7788e-05, Final residual = 2.25084e-06, No Iterations 23
time step continuity errors : sum local = 1.24325e-05, global = 2.66033e-07, cumulative = 2.66033e-07
smoothSolver:  Solving for omega, Initial residual = 0.151437, Final residual = 0.00327435, No Iterations 2
bounding omega, min: -4037.21 max: 6.47363e+07 average: 5597.46
smoothSolver:  Solving for omega, Initial residual = 0.151437, Final residual = 0.00327435, No Iterations 2
bounding omega, min: -4037.21 max: 6.47363e+07 average: 5597.46
smoothSolver:  Solving for omega, Initial residual = 0.151437, Final residual = 0.00327435, No Iterations 2
bounding omega, min: -4037.21 max: 6.47363e+07 average: 5597.46
smoothSolver:  Solving for omega, Initial residual = 0.151437, Final residual = 0.00327435, No Iterations 2
bounding omega, min: -4037.21 max: 6.47363e+07 average: 5597.46
smoothSolver:  Solving for k, Initial residual = 0.0683498, Final residual = 0.00332646, No Iterations 2
bounding k, min: -0.013296 max: 7.82716 average: 0.000468474
ExecutionTime = 13.95 s  ClockTime = 14 s

smoothSolver:  Solving for k, Initial residual = 0.0683498, Final residual = 0.00332646, No Iterations 2
bounding k, min: -0.013296 max: 7.82716 average: 0.000468474
ExecutionTime = 14.05 s  ClockTime = 14 s

smoothSolver:  Solving for k, Initial residual = 0.0683498, Final residual = 0.00332646, No Iterations 2
forceCoeffs forceCoeffs1 write:
    Coefficient	Total	Pressure	Viscous	Internal
bounding k, min: -0.013296 max: 7.82716 average: 0.000468474
    Cd:	543.556	543.457	0.0989147	0
    Cd(f):	269.02	268.973	0.0463901	0
    Cd(r):	274.536	274.484	0.0525246	0
    Cl:	5.51684	5.5107	0.00613446	0
    Cl(f):	5.34217	5.33598	0.00618276	0
    Cl(r):	0.17467	0.174719	-4.8292e-05	0
    CmPitch:	2.58375	2.58063	0.00311552	0
    CmRoll:	-2.75842	-2.75535	-0.00306723	0
    CmYaw:	271.778	271.729	0.0494574	0
    Cs:	2.91344e-19	2.91297e-19	4.75338e-23	0
    Cs(f):	271.778	271.729	0.0494574	0
    Cs(r):	-271.778	-271.729	-0.0494574	0

    writing force and moment coefficient files.

Time = 2

ExecutionTime = 14.14 s  ClockTime = 14 s

forceCoeffs forceCoeffs1 write:
    Coefficient	Total	Pressure	Viscous	Internal
    Cd:	543.556	543.457	0.0989147	0
    Cd(f):	269.02	268.973	0.0463901	0
    Cd(r):	274.536	274.484	0.0525246	0
    Cl:	5.51684	5.5107	0.00613446	0
    Cl(f):	5.34217	5.33598	0.00618276	0
    Cl(r):	0.17467	0.174719	-4.8292e-05	0
    CmPitch:	2.58375	2.58063	0.00311552	0
    CmRoll:	-2.75842	-2.75535	-0.00306723	0
    CmYaw:	271.778	271.729	0.0494574	0
    Cs:	2.91344e-19	2.91297e-19	4.75338e-23	0
    Cs(f):	271.778	271.729	0.0494574	0
    Cs(r):	-271.778	-271.729	-0.0494574	0

    writing force and moment coefficient files.

Time = 2

smoothSolver:  Solving for k, Initial residual = 0.0683498, Final residual = 0.00332646, No Iterations 2
bounding k, min: -0.013296 max: 7.82716 average: 0.000468474
ExecutionTime = 14.24 s  ClockTime = 14 s

forceCoeffs forceCoeffs1 write:
    Coefficient	Total	Pressure	Viscous	Internal
    Cd:	543.556	543.457	0.0989147	0
    Cd(f):	269.02	268.973	0.0463901	0
    Cd(r):	274.536	274.484	0.0525246	0
    Cl:	5.51684	5.5107	0.00613446	0
    Cl(f):	5.34217	5.33598	0.00618276	0
    Cl(r):	0.17467	0.174719	-4.8292e-05	0
    CmPitch:	2.58375	2.58063	0.00311552	0
    CmRoll:	-2.75842	-2.75535	-0.00306723	0
    CmYaw:	271.778	271.729	0.0494574	0
    Cs:	2.91344e-19	2.91297e-19	4.75338e-23	0
    Cs(f):	271.778	271.729	0.0494574	0
    Cs(r):	-271.778	-271.729	-0.0494574	0

    writing force and moment coefficient files.

Time = 2

forceCoeffs forceCoeffs1 write:
    Coefficient	Total	Pressure	Viscous	Internal
    Cd:	543.556	543.457	0.0989147	0
    Cd(f):	269.02	268.973	0.0463901	0
    Cd(r):	274.536	274.484	0.0525246	0
    Cl:	5.51684	5.5107	0.00613446	0
    Cl(f):	5.34217	5.33598	0.00618276	0
    Cl(r):	0.17467	0.174719	-4.8292e-05	0
    CmPitch:	2.58375	2.58063	0.00311552	0
    CmRoll:	-2.75842	-2.75535	-0.00306723	0
    CmYaw:	271.778	271.729	0.0494574	0
    Cs:	2.91344e-19	2.91297e-19	4.75338e-23	0
    Cs(f):	271.778	271.729	0.0494574	0
    Cs(r):	-271.778	-271.729	-0.0494574	0

    writing force and moment coefficient files.

Time = 2

smoothSolver:  Solving for Ux, Initial residual = 0.446261, Final residual = 0.041823, No Iterations 2
smoothSolver:  Solving for Uy, Initial residual = 0.254854, Final residual = 0.0181355, No Iterations 2
smoothSolver:  Solving for Ux, Initial residual = 0.446261, Final residual = 0.041823, No Iterations 2
smoothSolver:  Solving for Uy, Initial residual = 0.254854, Final residual = 0.0181355, No Iterations 2
smoothSolver:  Solving for Ux, Initial residual = 0.446261, Final residual = 0.041823, No Iterations 2
smoothSolver:  Solving for Uy, Initial residual = 0.254854, Final residual = 0.0181355, No Iterations 2
smoothSolver:  Solving for Ux, Initial residual = 0.446261, Final residual = 0.041823, No Iterations 2
smoothSolver:  Solving for Uy, Initial residual = 0.254854, Final residual = 0.0181355, No Iterations 2
GAMG:  Solving for p, Initial residual = 0.205964, Final residual = 0.0072438, No Iterations 4
GAMG:  Solving for p, Initial residual = 0.205964, Final residual = 0.0072438, No Iterations 4
GAMG:  Solving for p, Initial residual = 0.205964, Final residual = 0.0072438, No Iterations 4
GAMG:  Solving for p, Initial residual = 0.205964, Final residual = 0.0072438, No Iterations 4
GAMG:  Solving for p, Initial residual = 0.0328599, Final residual = 0.00160832, No Iterations 24
GAMG:  Solving for p, Initial residual = 0.0328599, Final residual = 0.00160832, No Iterations 24
GAMG:  Solving for p, Initial residual = 0.0328599, Final residual = 0.00160832, No Iterations 24
GAMG:  Solving for p, Initial residual = 0.0328599, Final residual = 0.00160832, No Iterations 24
GAMG:  Solving for p, Initial residual = 0.0153291, Final residual = 0.000755784, No Iterations 13
GAMG:  Solving for p, Initial residual = 0.0153291, Final residual = 0.000755784, No Iterations 13
GAMG:  Solving for p, Initial residual = 0.0153291, Final residual = 0.000755784, No Iterations 13
GAMG:  Solving for p, Initial residual = 0.0153291, Final residual = 0.000755784, No Iterations 13
GAMG:  Solving for p, Initial residual = 0.00156487, Final residual = 7.56136e-05, No Iterations 21
GAMG:  Solving for p, Initial residual = 0.00156487, Final residual = 7.56136e-05, No Iterations 21
time step continuity errors : sum local = 2.57924e-05, global = 6.89804e-07, cumulative = 9.55837e-07
time step continuity errors : sum local = 2.57924e-05, global = 6.89804e-07, cumulative = 9.55837e-07
GAMG:  Solving for p, Initial residual = 0.00156487, Final residual = 7.56136e-05, No Iterations 21
GAMG:  Solving for p, Initial residual = 0.00156487, Final residual = 7.56136e-05, No Iterations 21
time step continuity errors : sum local = 2.57924e-05, global = 6.89804e-07, cumulative = 9.55837e-07
time step continuity errors : sum local = 2.57924e-05, global = 6.89804e-07, cumulative = 9.55837e-07
smoothSolver:  Solving for omega, Initial residual = 0.461284, Final residual = 0.00942829, No Iterations 2
bounding omega, min: -4.19482e+07 max: 1.31231e+09 average: 29354.7
smoothSolver:  Solving for omega, Initial residual = 0.461284, Final residual = 0.00942829, No Iterations 2
bounding omega, min: -4.19482e+07 max: 1.31231e+09 average: 29354.7
smoothSolver:  Solving for omega, Initial residual = 0.461284, Final residual = 0.00942829, No Iterations 2
bounding omega, min: -4.19482e+07 max: 1.31231e+09 average: 29354.7
smoothSolver:  Solving for omega, Initial residual = 0.461284, Final residual = 0.00942829, No Iterations 2
bounding omega, min: -4.19482e+07 max: 1.31231e+09 average: 29354.7
smoothSolver:  Solving for k, Initial residual = 0.154537, Final residual = 0.00108811, No Iterations 2
bounding k, min: -2.40689 max: 117.147 average: 0.00259308
smoothSolver:  Solving for k, Initial residual = 0.154537, Final residual = 0.00108811, No Iterations 2
bounding k, min: -2.40689 max: 117.147 average: 0.00259308
smoothSolver:  Solving for k, Initial residual = 0.154537, Final residual = 0.00108811, No Iterations 2
bounding k, min: -2.40689 max: 117.147 average: 0.00259308
smoothSolver:  Solving for k, Initial residual = 0.154537, Final residual = 0.00108811, No Iterations 2
bounding k, min: -2.40689 max: 117.147 average: 0.00259308
ExecutionTime = 26.15 s  ClockTime = 27 s

forceCoeffs forceCoeffs1 write:
    Coefficient	Total	Pressure	Viscous	Internal
ExecutionTime = 26.63 s  ClockTime = 27 s

    Cd:	378.294	378.398	-0.104243	0
    Cd(f):	187.682	187.72	-0.0379056	0
    Cd(r):	190.612	190.678	-0.0663372	0
    Cl:	2.92984	2.95827	-0.0284316	0
    Cl(f):	2.79477	2.82256	-0.0277907	0
    Cl(r):	0.135073	0.135714	-0.000640903	0
    CmPitch:	1.32985	1.34342	-0.0135749	0
    CmRoll:	-1.46492	-1.47914	0.0142158	0
    CmYaw:	189.147	189.199	-0.0521214	0
    Cs:	2.2351e-19	2.23229e-19	2.80715e-22	0
    Cs(f):	189.147	189.199	-0.0521214	0
    Cs(r):	-189.147	-189.199	0.0521214	0

    writing force and moment coefficient files.

End

forceCoeffs forceCoeffs1 write:
    Coefficient	Total	Pressure	Viscous	Internal
    Cd:	378.294	378.398	-0.104243	0
    Cd(f):	187.682	187.72	-0.0379056	0
    Cd(r):	190.612	190.678	-0.0663372	0
    Cl:	2.92984	2.95827	-0.0284316	0
    Cl(f):	2.79477	2.82256	-0.0277907	0
    Cl(r):	0.135073	0.135714	-0.000640903	0
    CmPitch:	1.32985	1.34342	-0.0135749	0
    CmRoll:	-1.46492	-1.47914	0.0142158	0
    CmYaw:	189.147	189.199	-0.0521214	0
    Cs:	2.2351e-19	2.23229e-19	2.80715e-22	0
    Cs(f):	189.147	189.199	-0.0521214	0
    Cs(r):	-189.147	-189.199	0.0521214	0

    writing force and moment coefficient files.

End

ExecutionTime = 26.45 s  ClockTime = 28 s

forceCoeffs forceCoeffs1 write:
    Coefficient	Total	Pressure	Viscous	Internal
    Cd:	378.294	378.398	-0.104243	0
    Cd(f):	187.682	187.72	-0.0379056	0
    Cd(r):	190.612	190.678	-0.0663372	0
    Cl:	2.92984	2.95827	-0.0284316	0
    Cl(f):	2.79477	2.82256	-0.0277907	0
    Cl(r):	0.135073	0.135714	-0.000640903	0
    CmPitch:	1.32985	1.34342	-0.0135749	0
    CmRoll:	-1.46492	-1.47914	0.0142158	0
    CmYaw:	189.147	189.199	-0.0521214	0
    Cs:	2.2351e-19	2.23229e-19	2.80715e-22	0
    Cs(f):	189.147	189.199	-0.0521214	0
    Cs(r):	-189.147	-189.199	0.0521214	0

    writing force and moment coefficient files.

End

ExecutionTime = 26.71 s  ClockTime = 28 s

forceCoeffs forceCoeffs1 write:
    Coefficient	Total	Pressure	Viscous	Internal
    Cd:	378.294	378.398	-0.104243	0
    Cd(f):	187.682	187.72	-0.0379056	0
    Cd(r):	190.612	190.678	-0.0663372	0
    Cl:	2.92984	2.95827	-0.0284316	0
    Cl(f):	2.79477	2.82256	-0.0277907	0
    Cl(r):	0.135073	0.135714	-0.000640903	0
    CmPitch:	1.32985	1.34342	-0.0135749	0
    CmRoll:	-1.46492	-1.47914	0.0142158	0
    CmYaw:	189.147	189.199	-0.0521214	0
    Cs:	2.2351e-19	2.23229e-19	2.80715e-22	0
    Cs(f):	189.147	189.199	-0.0521214	0
    Cs(r):	-189.147	-189.199	0.0521214	0

    writing force and moment coefficient files.

End

