/*---------------------------------------------------------------------------*\
| =========                 |                                                 |
| \\      /  F ield         | OpenFOAM: The Open Source CFD Toolbox           |
|  \\    /   O peration     | Version:  2212                                  |
|   \\  /    A nd           | Website:  www.openfoam.com                      |
|    \\/     M anipulation  |                                                 |
\*---------------------------------------------------------------------------*/
Build  : _70874860-20230612 OPENFOAM=2212 patch=230612 version=2212
Arch   : "LSB;label=32;scalar=64"
Exec   : simpleFoam
Date   : Sep 20 2023
Time   : 12:54:25
/*---------------------------------------------------------------------------*\
| =========                 |                                                 |
| \\      /  F ield         | OpenFOAM: The Open Source CFD Toolbox           |
|  \\    /   O peration     | Version:  2212                                  |
|   \\  /    A nd           | Website:  www.openfoam.com                      |
|    \\/     M anipulation  |                                                 |
\*---------------------------------------------------------------------------*/
Build  : _70874860-20230612 OPENFOAM=2212 patch=230612 version=2212
Arch   : "LSB;label=32;scalar=64"
Exec   : simpleFoam
Date   : Sep 20 2023
Time   : 12:54:25
Host   : maciek-gv62-7rc
PID    : 733405
/*---------------------------------------------------------------------------*\
| =========                 |                                                 |
| \\      /  F ield         | OpenFOAM: The Open Source CFD Toolbox           |
|  \\    /   O peration     | Version:  2212                                  |
|   \\  /    A nd           | Website:  www.openfoam.com                      |
|    \\/     M anipulation  |                                                 |
\*---------------------------------------------------------------------------*/
Build  : _70874860-20230612 OPENFOAM=2212 patch=230612 version=2212
Arch   : "LSB;label=32;scalar=64"
Exec   : simpleFoam
Date   : Sep 20 2023
Time   : 12:54:25
Host   : maciek-gv62-7rc
PID    : 733406
/*---------------------------------------------------------------------------*\
| =========                 |                                                 |
| \\      /  F ield         | OpenFOAM: The Open Source CFD Toolbox           |
|  \\    /   O peration     | Version:  2212                                  |
|   \\  /    A nd           | Website:  www.openfoam.com                      |
|    \\/     M anipulation  |                                                 |
\*---------------------------------------------------------------------------*/
Build  : _70874860-20230612 OPENFOAM=2212 patch=230612 version=2212
Arch   : "LSB;label=32;scalar=64"
Exec   : simpleFoam
Date   : Sep 20 2023
Time   : 12:54:25
Host   : maciek-gv62-7rc
PID    : 733407
Host   : maciek-gv62-7rc
PID    : 733408
I/O    : uncollated
I/O    : uncollated
I/O    : uncollated
Case   : /home/maciek/repository/airSupport/run/NACA0017_AoA[0-3]_k-omega
nProcs : 1
trapFpe: Floating point exception trapping enabled (FOAM_SIGFPE).
I/O    : uncollated
Case   : /home/maciek/repository/airSupport/run/NACA0017_AoA[0-3]_k-omega
nProcs : 1
Case   : /home/maciek/repository/airSupport/run/NACA0017_AoA[0-3]_k-omega
nProcs : 1
trapFpe: Floating point exception trapping enabled (FOAM_SIGFPE).
fileModificationChecking : Monitoring run-time modified files using timeStampMaster (fileModificationSkew 5, maxFileModificationPolls 20)
allowSystemOperations : Allowing user-supplied system call operations

// * * * * * * * * * * * * * * * * * * * * * * * * * * * * * * * * * * * * * //
Create time

fileModificationChecking : Monitoring run-time modified files using timeStampMaster (fileModificationSkew 5, maxFileModificationPolls 20)
allowSystemOperations : Allowing user-supplied system call operations

// * * * * * * * * * * * * * * * * * * * * * * * * * * * * * * * * * * * * * //
Create time

Case   : /home/maciek/repository/airSupport/run/NACA0017_AoA[0-3]_k-omega
nProcs : 1
trapFpe: Floating point exception trapping enabled (FOAM_SIGFPE).
fileModificationChecking : Monitoring run-time modified files using timeStampMaster (fileModificationSkew 5, maxFileModificationPolls 20)
allowSystemOperations : Allowing user-supplied system call operations

// * * * * * * * * * * * * * * * * * * * * * * * * * * * * * * * * * * * * * //
Create time

trapFpe: Floating point exception trapping enabled (FOAM_SIGFPE).
fileModificationChecking : Monitoring run-time modified files using timeStampMaster (fileModificationSkew 5, maxFileModificationPolls 20)
allowSystemOperations : Allowing user-supplied system call operations

// * * * * * * * * * * * * * * * * * * * * * * * * * * * * * * * * * * * * * //
Create time

Create mesh for time = 0
Create mesh for time = 0
Create mesh for time = 0
Create mesh for time = 0


SIMPLE: convergence criteria
    field U	 tolerance 0.0001
    field p	 tolerance 0.001
    field "(k|epsilon|omega)"	 tolerance 0.001

Reading field p



SIMPLE: convergence criteria
    field U	 tolerance 0.0001
    field p	 tolerance 0.001
    field "(k|epsilon|omega)"	 tolerance 0.001

Reading field p



SIMPLE: convergence criteria
    field U	 tolerance 0.0001
    field p	 tolerance 0.001
    field "(k|epsilon|omega)"	 tolerance 0.001

Reading field p



SIMPLE: convergence criteria
    field U	 tolerance 0.0001
    field p	 tolerance 0.001
    field "(k|epsilon|omega)"	 tolerance 0.001

Reading field p

Reading field U

Reading field U

Reading field U

Reading field U

Reading/calculating face flux field phi

Selecting incompressible transport model Newtonian
Selecting turbulence model type RAS
Selecting RAS turbulence model kOmega
Reading/calculating face flux field phi

Reading/calculating face flux field phi

Selecting incompressible transport model Newtonian
Selecting turbulence model type RAS
Selecting RAS turbulence model kOmega
Selecting incompressible transport model Newtonian
Selecting turbulence model type RAS
Selecting RAS turbulence model kOmega
Reading/calculating face flux field phi

Selecting incompressible transport model Newtonian
Selecting turbulence model type RAS
Selecting RAS turbulence model kOmega
bounding k, min: 0 max: 117.147 average: 0.00271014
RAS
{
    RASModel        kOmega;
    turbulence      on;
    printCoeffs     on;
    betaStar        0.09;
    beta            0.072;
    gamma           0.52;
    alphaK          0.5;
    alphaOmega      0.5;
}

No MRF models present

No finite volume options present

Starting time loop

forceCoeffs forceCoeffs1:
    rho: rhoInf
    Freestream density (rhoInf) set to 1
    Not including porosity effects
    magUInf: 10
    lRef   : 1
    Aref   : 1
    rhoInf : 1
    Selecting all coefficients
    - Drag force: Cd
    - Drag force front: Cd(f)
    - Drag force rear: Cd(r)
    - Lift force: Cl
    - Lift force front: Cl(f)
    - Lift force rear: Cl(r)
    - Pitch moment: CmPitch
    - Roll moment: CmRoll
    - Yaw moment: CmYaw
    - Side force: Cs
    - Side force front: Cs(f)
    - Side force rear: Cs(r)


Time = 1

bounding k, min: 0 max: 117.147 average: 0.00271014
bounding k, min: 0 max: 117.147 average: 0.00271014
RAS
{
    RASModel        kOmega;
    turbulence      on;
    printCoeffs     on;
    betaStar        0.09;
    beta            0.072;
    gamma           0.52;
    alphaK          0.5;
    alphaOmega      0.5;
}

No MRF models present

No finite volume options present

Starting time loop

bounding k, min: 0 max: 117.147 average: 0.00271014
forceCoeffs forceCoeffs1:
    rho: rhoInf
    Freestream density (rhoInf) set to 1
    Not including porosity effects
    magUInf: 10
    lRef   : 1
    Aref   : 1
    rhoInf : 1
    Selecting all coefficients
    - Drag force: Cd
    - Drag force front: Cd(f)
    - Drag force rear: Cd(r)
    - Lift force: Cl
    - Lift force front: Cl(f)
    - Lift force rear: Cl(r)
    - Pitch moment: CmPitch
    - Roll moment: CmRoll
    - Yaw moment: CmYaw
    - Side force: Cs
    - Side force front: Cs(f)
    - Side force rear: Cs(r)


Time = 1

RAS
{
    RASModel        kOmega;
    turbulence      on;
    printCoeffs     on;
    betaStar        0.09;
    beta            0.072;
    gamma           0.52;
    alphaK          0.5;
    alphaOmega      0.5;
}

No MRF models present

No finite volume options present

Starting time loop

RAS
{
    RASModel        kOmega;
    turbulence      on;
    printCoeffs     on;
    betaStar        0.09;
    beta            0.072;
    gamma           0.52;
    alphaK          0.5;
    alphaOmega      0.5;
}

No MRF models present

No finite volume options present
forceCoeffs forceCoeffs1:
    rho: rhoInf
    Freestream density (rhoInf) set to 1
    Not including porosity effects
    magUInf: 10
    lRef   : 1
    Aref   : 1
    rhoInf : 1
    Selecting all coefficients
    - Drag force: Cd
    - Drag force front: Cd(f)
    - Drag force rear: Cd(r)
    - Lift force: Cl
    - Lift force front: Cl(f)
    - Lift force rear: Cl(r)
    - Pitch moment: CmPitch
    - Roll moment: CmRoll
    - Yaw moment: CmYaw
    - Side force: Cs
    - Side force front: Cs(f)
    - Side force rear: Cs(r)



Starting time loop

Time = 1

forceCoeffs forceCoeffs1:
    rho: rhoInf
    Freestream density (rhoInf) set to 1
    Not including porosity effects
    magUInf: 10
    lRef   : 1
    Aref   : 1
    rhoInf : 1
    Selecting all coefficients
    - Drag force: Cd
    - Drag force front: Cd(f)
    - Drag force rear: Cd(r)
    - Lift force: Cl
    - Lift force front: Cl(f)
    - Lift force rear: Cl(r)
    - Pitch moment: CmPitch
    - Roll moment: CmRoll
    - Yaw moment: CmYaw
    - Side force: Cs
    - Side force front: Cs(f)
    - Side force rear: Cs(r)


Time = 1

smoothSolver:  Solving for Ux, Initial residual = 0.162467, Final residual = 0.00976678, No Iterations 2
smoothSolver:  Solving for Ux, Initial residual = 0.162467, Final residual = 0.00976678, No Iterations 2
smoothSolver:  Solving for Uy, Initial residual = 0.19748, Final residual = 0.01629, No Iterations 2
smoothSolver:  Solving for Uy, Initial residual = 0.19748, Final residual = 0.01629, No Iterations 2
smoothSolver:  Solving for Ux, Initial residual = 0.162467, Final residual = 0.00976678, No Iterations 2
smoothSolver:  Solving for Uy, Initial residual = 0.19748, Final residual = 0.01629, No Iterations 2
smoothSolver:  Solving for Ux, Initial residual = 0.162467, Final residual = 0.00976678, No Iterations 2
smoothSolver:  Solving for Uy, Initial residual = 0.19748, Final residual = 0.01629, No Iterations 2
GAMG:  Solving for p, Initial residual = 0.195835, Final residual = 0.00934773, No Iterations 14
GAMG:  Solving for p, Initial residual = 0.195835, Final residual = 0.00934773, No Iterations 14
GAMG:  Solving for p, Initial residual = 0.195835, Final residual = 0.00934773, No Iterations 14
GAMG:  Solving for p, Initial residual = 0.195835, Final residual = 0.00934773, No Iterations 14
GAMG:  Solving for p, Initial residual = 0.00112161, Final residual = 5.21737e-05, No Iterations 11
GAMG:  Solving for p, Initial residual = 0.00112161, Final residual = 5.21737e-05, No Iterations 11
GAMG:  Solving for p, Initial residual = 0.00112161, Final residual = 5.21737e-05, No Iterations 11
GAMG:  Solving for p, Initial residual = 0.00112161, Final residual = 5.21737e-05, No Iterations 11
GAMG:  Solving for p, Initial residual = 0.000175831, Final residual = 8.33743e-06, No Iterations 26
GAMG:  Solving for p, Initial residual = 0.000175831, Final residual = 8.33743e-06, No Iterations 26
GAMG:  Solving for p, Initial residual = 0.000175831, Final residual = 8.33743e-06, No Iterations 26
GAMG:  Solving for p, Initial residual = 0.000175831, Final residual = 8.33743e-06, No Iterations 26
GAMG:  Solving for p, Initial residual = 3.50612e-05, Final residual = 1.65302e-06, No Iterations 24
GAMG:  Solving for p, Initial residual = 3.50612e-05, Final residual = 1.65302e-06, No Iterations 24
time step continuity errors : sum local = 0.000171415, global = 4.34606e-06, cumulative = 4.34606e-06
time step continuity errors : sum local = 0.000171415, global = 4.34606e-06, cumulative = 4.34606e-06
GAMG:  Solving for p, Initial residual = 3.50612e-05, Final residual = 1.65302e-06, No Iterations 24
time step continuity errors : sum local = 0.000171415, global = 4.34606e-06, cumulative = 4.34606e-06
GAMG:  Solving for p, Initial residual = 3.50612e-05, Final residual = 1.65302e-06, No Iterations 24
time step continuity errors : sum local = 0.000171415, global = 4.34606e-06, cumulative = 4.34606e-06
smoothSolver:  Solving for omega, Initial residual = 0.286669, Final residual = 0.0128012, No Iterations 2
smoothSolver:  Solving for omega, Initial residual = 0.286669, Final residual = 0.0128012, No Iterations 2
bounding omega, min: -2.12457e+07 max: 7.67254e+08 average: 26238.4
bounding omega, min: -2.12457e+07 max: 7.67254e+08 average: 26238.4
smoothSolver:  Solving for omega, Initial residual = 0.286669, Final residual = 0.0128012, No Iterations 2
bounding omega, min: -2.12457e+07 max: 7.67254e+08 average: 26238.4
smoothSolver:  Solving for omega, Initial residual = 0.286669, Final residual = 0.0128012, No Iterations 2
bounding omega, min: -2.12457e+07 max: 7.67254e+08 average: 26238.4
smoothSolver:  Solving for k, Initial residual = 0.372557, Final residual = 0.0188667, No Iterations 2
bounding k, min: -9.01011 max: 161.096 average: 0.00387109
smoothSolver:  Solving for k, Initial residual = 0.372557, Final residual = 0.0188667, No Iterations 2
bounding k, min: -9.01011 max: 161.096 average: 0.00387109
ExecutionTime = 14.83 s  ClockTime = 15 s

ExecutionTime = 14.82 s  ClockTime = 15 s

smoothSolver:  Solving for k, Initial residual = 0.372557, Final residual = 0.0188667, No Iterations 2
bounding k, min: -9.01011 max: 161.096 average: 0.00387109
ExecutionTime = 14.73 s  ClockTime = 15 s

smoothSolver:  Solving for k, Initial residual = 0.372557, Final residual = 0.0188667, No Iterations 2
bounding k, min: -9.01011 max: 161.096 average: 0.00387109
ExecutionTime = 15.02 s  ClockTime = 16 s

forceCoeffs forceCoeffs1 write:
    Coefficient	Total	Pressure	Viscous	Internal
forceCoeffs forceCoeffs1 write:
    Coefficient	Total	Pressure	Viscous	Internal
    Cd:	-7443.04	-7442.91	-0.129662	0
    Cd:	-7443.04	-7442.91	-0.129662	0
    Cd(f):	-3891.83	-3891.83	0.00120003	0
    Cd(r):	-3551.21	-3551.08	-0.130862	0
    Cl:	340.626	340.758	-0.132062	0
    Cd(f):	-3891.83	-3891.83	0.00120003	0
    Cd(r):	-3551.21	-3551.08	-0.130862	0
    Cl:	340.626	340.758	-0.132062	0
    Cl(f):	324.915	325.047	-0.131441	0
    Cl(f):	324.915	325.047	-0.131441	0
    Cl(r):	15.7101	15.7107	-0.000620948	0
    CmPitch:	154.603	154.668	-0.0654102	0
    Cl(r):	15.7101	15.7107	-0.000620948	0
    CmPitch:	154.603	154.668	-0.0654102	0
    CmRoll:	-170.313	-170.379	0.0660312	0
    CmRoll:	-170.313	-170.379	0.0660312	0
    CmYaw:	-3721.52	-3721.46	-0.0648311	0
    Cs:	-7.07192e-19	-6.89817e-19	-1.73745e-20	0
    Cs(f):	-3721.52	-3721.46	-0.0648311	0
    Cs(r):	3721.52	3721.46	0.0648311	0

    writing force and moment coefficient files.
    CmYaw:	-3721.52	-3721.46	-0.0648311	0
    Cs:	-7.07192e-19	-6.89817e-19	-1.73745e-20	0
    Cs(f):	-3721.52	-3721.46	-0.0648311	0
    Cs(r):	3721.52	3721.46	0.0648311	0

    writing force and moment coefficient files.
forceCoeffs forceCoeffs1 write:
    Coefficient	Total	Pressure	Viscous	Internal
    Cd:	-7443.04	-7442.91	-0.129662	0
    Cd(f):	-3891.83	-3891.83	0.00120003	0
    Cd(r):	-3551.21	-3551.08	-0.130862	0
    Cl:	340.626	340.758	-0.132062	0
    Cl(f):	324.915	325.047	-0.131441	0
    Cl(r):	15.7101	15.7107	-0.000620948	0
    CmPitch:	154.603	154.668	-0.0654102	0
    CmRoll:	-170.313	-170.379	0.0660312	0
    CmYaw:	-3721.52	-3721.46	-0.0648311	0
    Cs:	-7.07192e-19	-6.89817e-19	-1.73745e-20	0
    Cs(f):	-3721.52	-3721.46	-0.0648311	0
    Cs(r):	3721.52	3721.46	0.0648311	0

    writing force and moment coefficient files.
forceCoeffs forceCoeffs1 write:
    Coefficient	Total	Pressure	Viscous	Internal
    Cd:	-7443.04	-7442.91	-0.129662	0
    Cd(f):	-3891.83	-3891.83	0.00120003	0
    Cd(r):	-3551.21	-3551.08	-0.130862	0
    Cl:	340.626	340.758	-0.132062	0
    Cl(f):	324.915	325.047	-0.131441	0
    Cl(r):	15.7101	15.7107	-0.000620948	0
    CmPitch:	154.603	154.668	-0.0654102	0
    CmRoll:	-170.313	-170.379	0.0660312	0
    CmYaw:	-3721.52	-3721.46	-0.0648311	0
    Cs:	-7.07192e-19	-6.89817e-19	-1.73745e-20	0
    Cs(f):	-3721.52	-3721.46	-0.0648311	0
    Cs(r):	3721.52	3721.46	0.0648311	0

    writing force and moment coefficient files.

Time = 2


Time = 2


Time = 2


Time = 2

smoothSolver:  Solving for Ux, Initial residual = 0.228985, Final residual = 0.0205772, No Iterations 2
smoothSolver:  Solving for Uy, Initial residual = 0.396468, Final residual = 0.0369739, No Iterations 2
smoothSolver:  Solving for Ux, Initial residual = 0.228985, Final residual = 0.0205772, No Iterations 2
smoothSolver:  Solving for Ux, Initial residual = 0.228985, Final residual = 0.0205772, No Iterations 2
smoothSolver:  Solving for Ux, Initial residual = 0.228985, Final residual = 0.0205772, No Iterations 2
smoothSolver:  Solving for Uy, Initial residual = 0.396468, Final residual = 0.0369739, No Iterations 2
smoothSolver:  Solving for Uy, Initial residual = 0.396468, Final residual = 0.0369739, No Iterations 2
smoothSolver:  Solving for Uy, Initial residual = 0.396468, Final residual = 0.0369739, No Iterations 2
GAMG:  Solving for p, Initial residual = 0.0176107, Final residual = 0.000698447, No Iterations 5
GAMG:  Solving for p, Initial residual = 0.0176107, Final residual = 0.000698447, No Iterations 5
GAMG:  Solving for p, Initial residual = 0.0176107, Final residual = 0.000698447, No Iterations 5
GAMG:  Solving for p, Initial residual = 0.0176107, Final residual = 0.000698447, No Iterations 5
GAMG:  Solving for p, Initial residual = 0.000324575, Final residual = 1.53885e-05, No Iterations 19
GAMG:  Solving for p, Initial residual = 0.000324575, Final residual = 1.53885e-05, No Iterations 19
GAMG:  Solving for p, Initial residual = 0.000324575, Final residual = 1.53885e-05, No Iterations 19
GAMG:  Solving for p, Initial residual = 0.000324575, Final residual = 1.53885e-05, No Iterations 19
GAMG:  Solving for p, Initial residual = 8.3468e-05, Final residual = 3.31393e-06, No Iterations 13
GAMG:  Solving for p, Initial residual = 8.3468e-05, Final residual = 3.31393e-06, No Iterations 13
GAMG:  Solving for p, Initial residual = 8.3468e-05, Final residual = 3.31393e-06, No Iterations 13
GAMG:  Solving for p, Initial residual = 8.3468e-05, Final residual = 3.31393e-06, No Iterations 13
GAMG:  Solving for p, Initial residual = 1.37514e-05, Final residual = 6.52692e-07, No Iterations 15
GAMG:  Solving for p, Initial residual = 1.37514e-05, Final residual = 6.52692e-07, No Iterations 15
time step continuity errors : sum local = 7.07504e-05, global = -6.46262e-07, cumulative = 3.6998e-06
GAMG:  Solving for p, Initial residual = 1.37514e-05, Final residual = 6.52692e-07, No Iterations 15
time step continuity errors : sum local = 7.07504e-05, global = -6.46262e-07, cumulative = 3.6998e-06
time step continuity errors : sum local = 7.07504e-05, global = -6.46262e-07, cumulative = 3.6998e-06
GAMG:  Solving for p, Initial residual = 1.37514e-05, Final residual = 6.52692e-07, No Iterations 15
time step continuity errors : sum local = 7.07504e-05, global = -6.46262e-07, cumulative = 3.6998e-06
smoothSolver:  Solving for omega, Initial residual = 0.268733, Final residual = 0.0093714, No Iterations 2
smoothSolver:  Solving for omega, Initial residual = 0.268733, Final residual = 0.0093714, No Iterations 2
smoothSolver:  Solving for omega, Initial residual = 0.268733, Final residual = 0.0093714, No Iterations 2
bounding omega, min: -4.01907e+08 max: 6.38281e+09 average: 74861
bounding omega, min: -4.01907e+08 max: 6.38281e+09 average: 74861
bounding omega, min: -4.01907e+08 max: 6.38281e+09 average: 74861
smoothSolver:  Solving for omega, Initial residual = 0.268733, Final residual = 0.0093714, No Iterations 2
bounding omega, min: -4.01907e+08 max: 6.38281e+09 average: 74861
smoothSolver:  Solving for k, Initial residual = 0.251693, Final residual = 0.00846482, No Iterations 2
bounding k, min: -0.241801 max: 1056.5 average: 0.0104116
smoothSolver:  Solving for k, Initial residual = 0.251693, Final residual = 0.00846482, No Iterations 2
smoothSolver:  Solving for k, Initial residual = 0.251693, Final residual = 0.00846482, No Iterations 2
bounding k, min: -0.241801 max: 1056.5 average: 0.0104116
bounding k, min: -0.241801 max: 1056.5 average: 0.0104116
smoothSolver:  Solving for k, Initial residual = 0.251693, Final residual = 0.00846482, No Iterations 2
bounding k, min: -0.241801 max: 1056.5 average: 0.0104116
ExecutionTime = 25.81 s  ClockTime = 27 s

forceCoeffs forceCoeffs1 write:
    Coefficient	Total	Pressure	Viscous	Internal
    Cd:	-12741.1	-12741.4	0.218132	0
    Cd(f):	-6779.38	-6779.46	0.0875036	0
    Cd(r):	-5961.76	-5961.89	0.130628	0
    Cl:	817.617	817.574	0.0431248	0
    Cl(f):	781.732	781.695	0.0374861	0
    Cl(r):	35.8848	35.8792	0.0056387	0
    CmPitch:	372.924	372.908	0.0159237	0
    CmRoll:	-408.808	-408.787	-0.0215624	0
    CmYaw:	-6370.57	-6370.68	0.109066	0
    Cs:	-1.69117e-18	-1.7021e-18	1.09257e-20	0
    Cs(f):	-6370.57	-6370.68	0.109066	0
    Cs(r):	6370.57	6370.68	-0.109066	0

    writing force and moment coefficient files.

End

ExecutionTime = 25.96 s  ClockTime = 27 s

ExecutionTime = 26.06 s  ClockTime = 27 s

forceCoeffs forceCoeffs1 write:
    Coefficient	Total	Pressure	Viscous	Internal
    Cd:	-12741.1	-12741.4	0.218132	0
    Cd(f):	-6779.38	-6779.46	0.0875036	0
    Cd(r):	-5961.76	-5961.89	0.130628	0
    Cl:	817.617	817.574	0.0431248	0
    Cl(f):	781.732	781.695	0.0374861	0
    Cl(r):	35.8848	35.8792	0.0056387	0
    CmPitch:	372.924	372.908	0.0159237	0
    CmRoll:	-408.808	-408.787	-0.0215624	0
    CmYaw:	-6370.57	-6370.68	0.109066	0
    Cs:	-1.69117e-18	-1.7021e-18	1.09257e-20	0
    Cs(f):	-6370.57	-6370.68	0.109066	0
    Cs(r):	6370.57	6370.68	-0.109066	0

    writing force and moment coefficient files.

End

ExecutionTime = 26.14 s  ClockTime = 27 s

forceCoeffs forceCoeffs1 write:
    Coefficient	Total	Pressure	Viscous	Internal
    Cd:	-12741.1	-12741.4	0.218132	0
    Cd(f):	-6779.38	-6779.46	0.0875036	0
    Cd(r):	-5961.76	-5961.89	0.130628	0
    Cl:	817.617	817.574	0.0431248	0
    Cl(f):	781.732	781.695	0.0374861	0
    Cl(r):	35.8848	35.8792	0.0056387	0
    CmPitch:	372.924	372.908	0.0159237	0
    CmRoll:	-408.808	-408.787	-0.0215624	0
    CmYaw:	-6370.57	-6370.68	0.109066	0
    Cs:	-1.69117e-18	-1.7021e-18	1.09257e-20	0
    Cs(f):	-6370.57	-6370.68	0.109066	0
    Cs(r):	6370.57	6370.68	-0.109066	0

    writing force and moment coefficient files.

End

forceCoeffs forceCoeffs1 write:
    Coefficient	Total	Pressure	Viscous	Internal
    Cd:	-12741.1	-12741.4	0.218132	0
    Cd(f):	-6779.38	-6779.46	0.0875036	0
    Cd(r):	-5961.76	-5961.89	0.130628	0
    Cl:	817.617	817.574	0.0431248	0
    Cl(f):	781.732	781.695	0.0374861	0
    Cl(r):	35.8848	35.8792	0.0056387	0
    CmPitch:	372.924	372.908	0.0159237	0
    CmRoll:	-408.808	-408.787	-0.0215624	0
    CmYaw:	-6370.57	-6370.68	0.109066	0
    Cs:	-1.69117e-18	-1.7021e-18	1.09257e-20	0
    Cs(f):	-6370.57	-6370.68	0.109066	0
    Cs(r):	6370.57	6370.68	-0.109066	0

    writing force and moment coefficient files.

End

