/*---------------------------------------------------------------------------*\
| =========                 |                                                 |
| \\      /  F ield         | OpenFOAM: The Open Source CFD Toolbox           |
|  \\    /   O peration     | Version:  2212                                  |
|   \\  /    A nd           | Website:  www.openfoam.com                      |
|    \\/     M anipulation  |                                                 |
\*---------------------------------------------------------------------------*/
Build  : _70874860-20230612 OPENFOAM=2212 patch=230612 version=2212
Arch   : "LSB;label=32;scalar=64"
Exec   : createPatch -overwrite
Date   : Sep 20 2023
Time   : 12:51:34
Host   : maciek-gv62-7rc
PID    : 731108
I/O    : uncollated
Case   : /home/maciek/repository/airSupport/run/NACA0017_AoA[0-3]_k-omega
nProcs : 1
trapFpe: Floating point exception trapping enabled (FOAM_SIGFPE).
fileModificationChecking : Monitoring run-time modified files using timeStampMaster (fileModificationSkew 5, maxFileModificationPolls 20)
allowSystemOperations : Allowing user-supplied system call operations

// * * * * * * * * * * * * * * * * * * * * * * * * * * * * * * * * * * * * * //
Create time

Create mesh for time = 0

Reading "system/createPatchDict"



Adding patches to mesh region0

Adding new patch inlet from 
{
    type            patch;
    nFaces          0;
    startFace       0;
}

Adding new patch outlet from 
{
    type            patch;
    nFaces          0;
    startFace       0;
}

Adding new patch sides from 
{
    type            wall;
    nFaces          0;
    startFace       0;
}

Adding new patch foil from 
{
    type            wall;
    nFaces          0;
    startFace       0;
}

Adding new patch frontAndBack from 
{
    type            empty;
    nFaces          0;
    startFace       0;
}




Repatching mesh region0

Moving faces from patch Inlet to patch 6
Moving faces from patch Outlet to patch 7
Moving faces from patch Sides to patch 8
Moving faces from patch Foil to patch 9
Moving faces from patch bottomEmptyFaces to patch 10
Moving faces from patch topEmptyFaces to patch 10
Doing topology modification to order faces.

Not synchronising points.

Removing patches with no faces in them.

Removed zero-sized patch Foil type empty at position 0
Removed zero-sized patch Inlet type empty at position 1
Removed zero-sized patch Sides type empty at position 2
Removed zero-sized patch Outlet type empty at position 3
Removed zero-sized patch bottomEmptyFaces type empty at position 4
Removed zero-sized patch topEmptyFaces type empty at position 5


Writing repatched mesh region0 to 0

End

