/*---------------------------------------------------------------------------*\
| =========                 |                                                 |
| \\      /  F ield         | OpenFOAM: The Open Source CFD Toolbox           |
|  \\    /   O peration     | Version:  2212                                  |
|   \\  /    A nd           | Website:  www.openfoam.com                      |
|    \\/     M anipulation  |                                                 |
\*---------------------------------------------------------------------------*/
Build  : _70874860-20230612 OPENFOAM=2212 patch=230612 version=2212
Arch   : "LSB;label=32;scalar=64"
Exec   : cartesian2DMesh
Date   : Nov 02 2023
Time   : 18:15:54
Host   : maciek-gv62-7rc
PID    : 76109
I/O    : uncollated
Case   : /home/maciek/repository/airSupport/run/NACA0030_AoA[0-3]_k-omega
nProcs : 1
trapFpe: Floating point exception trapping enabled (FOAM_SIGFPE).
fileModificationChecking : Monitoring run-time modified files using timeStampMaster (fileModificationSkew 5, maxFileModificationPolls 20)
allowSystemOperations : Allowing user-supplied system call operations

// * * * * * * * * * * * * * * * * * * * * * * * * * * * * * * * * * * * * * //
Create time



--> FOAM FATAL IO ERROR: (openfoam-2212 patch=230612)
error in IOstream "domain.fms" for operation Foam::Istream& Foam::List<T>::readList(Foam::Istream&) [with T = Foam::geometricSurfacePatch]

file: domain.fms at line 1.

    From bool Foam::IOstream::fatalCheck(const char*) const
    in file db/IOstreams/IOstreams/IOstream.C at line 64.

FOAM exiting

