/*---------------------------------------------------------------------------*\
| =========                 |                                                 |
| \\      /  F ield         | OpenFOAM: The Open Source CFD Toolbox           |
|  \\    /   O peration     | Version:  2212                                  |
|   \\  /    A nd           | Website:  www.openfoam.com                      |
|    \\/     M anipulation  |                                                 |
\*---------------------------------------------------------------------------*/
Build  : _70874860-20230612 OPENFOAM=2212 patch=230612 version=2212
Arch   : "LSB;label=32;scalar=64"
Exec   : blockMesh
Date   : Nov 27 2023
Time   : 15:05:22
Host   : maciek-gv62-7rc
PID    : 97783
I/O    : uncollated
Case   : /home/maciek/repository/airSupport/run/NACA0010__AoA0_k-omega
nProcs : 1
trapFpe: Floating point exception trapping enabled (FOAM_SIGFPE).
fileModificationChecking : Monitoring run-time modified files using timeStampMaster (fileModificationSkew 5, maxFileModificationPolls 20)
allowSystemOperations : Allowing user-supplied system call operations

// * * * * * * * * * * * * * * * * * * * * * * * * * * * * * * * * * * * * * //
Create time

Creating block mesh from "system/blockMeshDict"
Creating block edges
Creating block faces
Creating topology blocks

Creating topology patches - from boundary section

Creating block mesh topology
--> FOAM Warning : 
    From Foam::polyMesh::polyMesh(const Foam::IOobject&, Foam::pointField&&, const cellShapeList&, const faceListList&, const wordList&, const Foam::PtrList<Foam::dictionary>&, const Foam::word&, const Foam::word&, bool)
    in file meshes/polyMesh/polyMeshFromShapeMesh.C at line 919
    Found 10 undefined faces in mesh; adding to default patch frontAndBack

Check topology

	Basic statistics
		Number of internal faces : 5
		Number of boundary faces : 20
		Number of defined boundary faces : 20
		Number of undefined boundary faces : 0
	Checking patch -> block consistency

Creating block offsets
Creating merge list (topological search)...

Creating polyMesh from blockMesh
Creating patches
Creating cells
Creating points with scale (1 1 1)
    Block 0 cell size :
        i : 0.00201128 .. 0.00199488
        j : 0.000453458 .. 0.453458
        k : 1 .. 1

    Block 1 cell size :
        i : 0.00386562 .. 0.0579842
        j : 0.000453411 .. 0.453411
        k : 1 .. 1

    Block 2 cell size :
        i : 0.00386562 .. 0.0579842
        j : 0.00014 .. 0.00014
        k : 1 .. 1

    Block 3 cell size :
        i : 0.00386562 .. 0.0579842
        j : 0.453411 .. 0.000453411
        k : 1 .. 1

    Block 4 cell size :
        i : 0.0332238 .. 0.0332238
        j : 0.453458 .. 0.000453458
        k : 1 .. 1

No patch pairs to merge

Writing polyMesh with 0 cellZones
----------------
Mesh Information
----------------
  boundingBox: (-10 -10.0247 0) (15 10.0247 1)
  nPoints: 744730
  nCells: 370500
  nFaces: 1483865
  nInternalFaces: 739135
----------------
Patches
----------------
  patch 0 (start: 739135 size: 2400) name: inlet
  patch 1 (start: 741535 size: 315) name: outlet
  patch 2 (start: 741850 size: 1015) name: foil
  patch 3 (start: 742865 size: 741000) name: frontAndBack

End

