/*---------------------------------------------------------------------------*\
| =========                 |                                                 |
| \\      /  F ield         | OpenFOAM: The Open Source CFD Toolbox           |
|  \\    /   O peration     | Version:  2212                                  |
|   \\  /    A nd           | Website:  www.openfoam.com                      |
|    \\/     M anipulation  |                                                 |
\*---------------------------------------------------------------------------*/
Build  : _70874860-20230612 OPENFOAM=2212 patch=230612 version=2212
Arch   : "LSB;label=32;scalar=64"
Exec   : checkMesh
Date   : Nov 27 2023
Time   : 15:05:31
Host   : maciek-gv62-7rc
PID    : 97785
I/O    : uncollated
Case   : /home/maciek/repository/airSupport/run/NACA0010__AoA0_k-omega
nProcs : 1
trapFpe: Floating point exception trapping enabled (FOAM_SIGFPE).
fileModificationChecking : Monitoring run-time modified files using timeStampMaster (fileModificationSkew 5, maxFileModificationPolls 20)
allowSystemOperations : Allowing user-supplied system call operations

// * * * * * * * * * * * * * * * * * * * * * * * * * * * * * * * * * * * * * //
Create time

Create mesh for time = 0

Time = 0

Mesh stats 
    points:           744730
    internal points:  0
    faces:            1483865
    internal faces:   739135
    cells:            370500
    faces per cell:   6
    boundary patches: 4
    point zones:      0
    face zones:       0
    cell zones:       0

Overall number of cells of each type:
    hexahedra:     370500
    prisms:        0
    wedges:        0
    pyramids:      0
    tet wedges:    0
    tetrahedra:    0
    polyhedra:     0

Checking topology...
    Boundary definition OK.
    Cell to face addressing OK.
    Point usage OK.
    Upper triangular ordering OK.
    Face vertices OK.
    Number of regions: 1 (OK).

Checking patch topology for multiply connected surfaces...
    Patch               Faces    Points   Surface topology
    inlet               2400     4802     ok (non-closed singly connected)  
    outlet              315      632      ok (non-closed singly connected)  
    foil                1015     2030     ok (non-closed singly connected)  
    frontAndBack        741000   744730   ok (non-closed singly connected)  

Checking faceZone topology for multiply connected surfaces...
    No faceZones found.

Checking basic cellZone addressing...
    No cellZones found.

Checking basic pointZone addressing...
    No pointZones found.

Checking geometry...
    Overall domain bounding box (-10 -10.0247 0) (15 10.0247 1)
    Mesh has 2 geometric (non-empty/wedge) directions (1 1 0)
    Mesh has 2 solution (non-empty) directions (1 1 0)
    All edges aligned with or perpendicular to non-empty directions.
    Boundary openness (-5.25215e-17 -1.96135e-17 1.34403e-16) OK.
    Max cell openness = 6.6662e-16 OK.
    Max aspect ratio = 414.286 OK.
    Minimum face area = 2.84294e-07. Maximum face area = 0.463131.  Face area magnitudes OK.
    Min volume = 2.84294e-07. Max volume = 0.0262978.  Total volume = 455.081.  Cell volumes OK.
    Mesh non-orthogonality Max: 71.828 average: 20.814
   *Number of severely non-orthogonal (> 70 degrees) faces: 4026.
    Non-orthogonality check OK.
  <<Writing 4026 non-orthogonal faces to set nonOrthoFaces
    Face pyramids OK.
    Max skewness = 0.235844 OK.
    Coupled point location match (average 0) OK.

Mesh OK.

End

