/*---------------------------------------------------------------------------*\
| =========                 |                                                 |
| \\      /  F ield         | OpenFOAM: The Open Source CFD Toolbox           |
|  \\    /   O peration     | Version:  2212                                  |
|   \\  /    A nd           | Website:  www.openfoam.com                      |
|    \\/     M anipulation  |                                                 |
\*---------------------------------------------------------------------------*/
Build  : _70874860-20230612 OPENFOAM=2212 patch=230612 version=2212
Arch   : "LSB;label=32;scalar=64"
Exec   : renumberMesh -overwrite
Date   : Nov 27 2023
Time   : 15:05:26
Host   : maciek-gv62-7rc
PID    : 97784
I/O    : uncollated
Case   : /home/maciek/repository/airSupport/run/NACA0010__AoA0_k-omega
nProcs : 1
trapFpe: Floating point exception trapping enabled (FOAM_SIGFPE).
fileModificationChecking : Monitoring run-time modified files using timeStampMaster (fileModificationSkew 5, maxFileModificationPolls 20)
allowSystemOperations : Allowing user-supplied system call operations

// * * * * * * * * * * * * * * * * * * * * * * * * * * * * * * * * * * * * * //
Create time

Create mesh for time = 0

Mesh region0 size: 370500
Before renumbering :
    band           : 370000
    profile        : 4.58195e+08

Using default renumberMethod.

Selecting renumberMethod CuthillMcKee

Reading volScalarField: k nut omega p
Reading volVectorField: U

After renumbering :
    band           : 315
    profile        : 1.0925e+08

Writing mesh to "constant"
End

